examples/feeders/9718_9718_1/004_chavesMT.dss
New Line.13CF_1382 phases=1 bus1=691081.2 bus2=13CF1382.2 r1=0.001 r0=0.001 x1=0 x0=0 c1=0 c0=0 length=0.001 switch=T
New Line.13CF_1527 phases=1 bus1=701391.3 bus2=13CF1527.3 r1=0.001 r0=0.001 x1=0 x0=0 c1=0 c0=0 length=0.001 switch=T
New Line.13CF_1678 phases=1 bus1=765631.1 bus2=13CF1678.1 r1=0.001 r0=0.001 x1=0 x0=0 c1=0 c0=0 length=0.001 switch=T
New Line.13CF_1706 phases=1 bus1=772801.1 bus2=13CF1706.1 r1=0.001 r0=0.001 x1=0 x0=0 c1=0 c0=0 length=0.001 switch=T
New Line.13CF_1757 phases=3 bus1=816491.1.2.3 bus2=13CF1757.1.2.3 r1=0.001 r0=0.001 x1=0 x0=0 c1=0 c0=0 length=0.001 switch=T
New Line.13CF_1917 phases=1 bus1=816281.3 bus2=13CF1917.3 r1=0.001 r0=0.001 x1=0 x0=0 c1=0 c0=0 length=0.001 switch=T
New Line.13CF_364 phases=1 bus1=148461.1 bus2=13CF364.1 r1=0.001 r0=0.001 x1=0 x0=0 c1=0 c0=0 length=0.001 switch=T
New Line.13CF_365 phases=1 bus1=326291.1 bus2=13CF365.1 r1=0.001 r0=0.001 x1=0 x0=0 c1=0 c0=0 length=0.001 switch=T
New Line.13CS_1197 phases=3 bus1=244171.1.2.3 bus2=13CS1197.1.2.3 r1=0.001 r0=0.001 x1=0 x0=0 c1=0 c0=0 length=0.001 switch=T
New Line.13FR_367 phases=1 bus1=84211.1 bus2=13FR367.1 r1=0.001 r0=0.001 x1=0 x0=0 c1=0 c0=0 length=0.001 switch=T
New Line.13FR_761 phases=1 bus1=321631.2 bus2=13FR761.2 r1=0.001 r0=0.001 x1=0 x0=0 c1=0 c0=0 length=0.001 switch=T
New Line.19BP_370 phases=3 bus1=357431.1.2.3 bus2=19BP370.1.2.3 r1=0.001 r0=0.001 x1=0 x0=0 c1=0 c0=0 length=0.001 switch=T
New Line.19CF_1034 phases=1 bus1=606801.2 bus2=19CF1034.2 r1=0.001 r0=0.001 x1=0 x0=0 c1=0 c0=0 length=0.001 switch=T
New Line.19CF_1067 phases=1 bus1=639071.2 bus2=19CF1067.2 r1=0.001 r0=0.001 x1=0 x0=0 c1=0 c0=0 length=0.001 switch=T
New Line.19CF_1069 phases=1 bus1=159161.1 bus2=19CF1069.1 r1=0.001 r0=0.001 x1=0 x0=0 c1=0 c0=0 length=0.001 switch=T
New Line.19CF_1070 phases=1 bus1=646431.1 bus2=19CF1070.1 r1=0.001 r0=0.001 x1=0 x0=0 c1=0 c0=0 length=0.001 switch=T
New Line.19CF_1084 phases=1 bus1=531081.1 bus2=19CF1084.1 r1=0.001 r0=0.001 x1=0 x0=0 c1=0 c0=0 length=0.001 switch=T
New Line.19CF_1098 phases=1 bus1=669171.1 bus2=19CF1098.1 r1=0.001 r0=0.001 x1=0 x0=0 c1=0 c0=0 length=0.001 switch=T
New Line.19CF_1123 phases=3 bus1=788901.1.2.3 bus2=19CF1123.1.2.3 r1=0.001 r0=0.001 x1=0 x0=0 c1=0 c0=0 length=0.001 switch=T
New Line.19CF_1208 phases=1 bus1=635621.1 bus2=19CF1208.1 r1=0.001 r0=0.001 x1=0 x0=0 c1=0 c0=0 length=0.001 switch=T
New Line.19CF_1275 phases=3 bus1=515211.1.2.3 bus2=19CF1275.1.2.3 r1=0.001 r0=0.001 x1=0 x0=0 c1=0 c0=0 length=0.001 switch=T
New Line.19CF_1312 phases=1 bus1=731471.1 bus2=19CF1312.1 r1=0.001 r0=0.001 x1=0 x0=0 c1=0 c0=0 length=0.001 switch=T
New Line.19CF_1335 phases=1 bus1=449771.1 bus2=19CF1335.1 r1=0.001 r0=0.001 x1=0 x0=0 c1=0 c0=0 length=0.001 switch=T
New Line.19CF_1353 phases=1 bus1=677061.1 bus2=19CF1353.1 r1=0.001 r0=0.001 x1=0 x0=0 c1=0 c0=0 length=0.001 switch=T
New Line.19CF_1394 phases=1 bus1=371601.3 bus2=19CF1394.3 r1=0.001 r0=0.001 x1=0 x0=0 c1=0 c0=0 length=0.001 switch=T
New Line.19CF_1413 phases=3 bus1=745861.1.2.3 bus2=19CF1413.1.2.3 r1=0.001 r0=0.001 x1=0 x0=0 c1=0 c0=0 length=0.001 switch=T
New Line.19CF_1522 phases=3 bus1=679521.1.2.3 bus2=19CF1522.1.2.3 r1=0.001 r0=0.001 x1=0 x0=0 c1=0 c0=0 length=0.001 switch=T
New Line.19CF_1650 phases=3 bus1=763271.1.2.3 bus2=19CF1650.1.2.3 r1=0.001 r0=0.001 x1=0 x0=0 c1=0 c0=0 length=0.001 switch=T
New Line.19CF_1703 phases=1 bus1=774271.2 bus2=19CF1703.2 r1=0.001 r0=0.001 x1=0 x0=0 c1=0 c0=0 length=0.001 switch=T
New Line.19CF_1704 phases=1 bus1=774281.2 bus2=19CF1704.2 r1=0.001 r0=0.001 x1=0 x0=0 c1=0 c0=0 length=0.001 switch=T
New Line.19CF_1825 phases=3 bus1=807441.1.2.3 bus2=19CF1825.1.2.3 r1=0.001 r0=0.001 x1=0 x0=0 c1=0 c0=0 length=0.001 switch=T
New Line.19CF_1847 phases=3 bus1=802671.1.2.3 bus2=19CF1847.1.2.3 r1=0.001 r0=0.001 x1=0 x0=0 c1=0 c0=0 length=0.001 switch=T
New Line.19CF_1848 phases=1 bus1=806971.1 bus2=19CF1848.1 r1=0.001 r0=0.001 x1=0 x0=0 c1=0 c0=0 length=0.001 switch=T
New Line.19CF_1907 phases=3 bus1=812571.1.2.3 bus2=19CF1907.1.2.3 r1=0.001 r0=0.001 x1=0 x0=0 c1=0 c0=0 length=0.001 switch=T
New Line.19CF_221 phases=1 bus1=359151.2 bus2=19CF221.2 r1=0.001 r0=0.001 x1=0 x0=0 c1=0 c0=0 length=0.001 switch=T
New Line.19CF_251 phases=2 bus1=108481.1.2 bus2=19CF251.1.2 r1=0.001 r0=0.001 x1=0 x0=0 c1=0 c0=0 length=0.001 switch=T
New Line.19CF_285 phases=1 bus1=774261.2 bus2=19CF285.2 r1=0.001 r0=0.001 x1=0 x0=0 c1=0 c0=0 length=0.001 switch=T
New Line.19CF_286 phases=3 bus1=134281.1.2.3 bus2=19CF286.1.2.3 r1=0.001 r0=0.001 x1=0 x0=0 c1=0 c0=0 length=0.001 switch=T
New Line.19CF_371 phases=3 bus1=755401.1.2.3 bus2=19CF371.1.2.3 r1=0.001 r0=0.001 x1=0 x0=0 c1=0 c0=0 length=0.001 switch=T
New Line.19CF_800 phases=1 bus1=727601.1 bus2=19CF800.1 r1=0.001 r0=0.001 x1=0 x0=0 c1=0 c0=0 length=0.001 switch=T
New Line.19CF_818 phases=1 bus1=598801.3 bus2=19CF818.3 r1=0.001 r0=0.001 x1=0 x0=0 c1=0 c0=0 length=0.001 switch=T
New Line.19CF_855 phases=1 bus1=629321.2 bus2=19CF855.2 r1=0.001 r0=0.001 x1=0 x0=0 c1=0 c0=0 length=0.001 switch=T
New Line.19CF_898 phases=1 bus1=595551.2 bus2=19CF898.2 r1=0.001 r0=0.001 x1=0 x0=0 c1=0 c0=0 length=0.001 switch=T
New Line.19CF_934 phases=1 bus1=498261.2 bus2=19CF934.2 r1=0.001 r0=0.001 x1=0 x0=0 c1=0 c0=0 length=0.001 switch=T
New Line.19CF_949 phases=3 bus1=605301.1.2.3 bus2=19CF949.1.2.3 r1=0.001 r0=0.001 x1=0 x0=0 c1=0 c0=0 length=0.001 switch=T
New Line.19CF_970 phases=3 bus1=156071.1.2.3 bus2=19CF970.1.2.3 r1=0.001 r0=0.001 x1=0 x0=0 c1=0 c0=0 length=0.001 switch=T
New Line.19CF_976 phases=3 bus1=401221.1.2.3 bus2=19CF976.1.2.3 r1=0.001 r0=0.001 x1=0 x0=0 c1=0 c0=0 length=0.001 switch=T
New Line.19CF_9999 phases=3 bus1=609621.1.2.3 bus2=19CF9999.1.2.3 r1=0.001 r0=0.001 x1=0 x0=0 c1=0 c0=0 length=0.001 switch=T
New Line.19CS_1250 phases=3 bus1=722501.1.2.3 bus2=19CS1250.1.2.3 r1=0.001 r0=0.001 x1=0 x0=0 c1=0 c0=0 length=0.001 switch=T
New Line.19CS_288 phases=3 bus1=148401.1.2.3 bus2=19CS288.1.2.3 r1=0.001 r0=0.001 x1=0 x0=0 c1=0 c0=0 length=0.001 switch=T
New Line.19CS_32 phases=3 bus1=585941.1.2.3 bus2=19CS32.1.2.3 r1=0.001 r0=0.001 x1=0 x0=0 c1=0 c0=0 length=0.001 switch=T
New Line.19CS_850 phases=3 bus1=753831.1.2.3 bus2=19CS850.1.2.3 r1=0.001 r0=0.001 x1=0 x0=0 c1=0 c0=0 length=0.001 switch=T
New Line.19FR_1709 phases=3 bus1=774301.1.2.3 bus2=19FR1709.1.2.3 r1=0.001 r0=0.001 x1=0 x0=0 c1=0 c0=0 length=0.001 switch=T
New Line.19FR_250 phases=1 bus1=99251.2 bus2=19FR250.2 r1=0.001 r0=0.001 x1=0 x0=0 c1=0 c0=0 length=0.001 switch=T
New Line.19FR_363 phases=2 bus1=764451.1.2 bus2=19FR363.1.2 r1=0.001 r0=0.001 x1=0 x0=0 c1=0 c0=0 length=0.001 switch=T
New Line.19FR_801 phases=3 bus1=655881.1.2.3 bus2=19FR801.1.2.3 r1=0.001 r0=0.001 x1=0 x0=0 c1=0 c0=0 length=0.001 switch=T
New Line.19FR_861 phases=3 bus1=812431.1.2.3 bus2=19FR861.1.2.3 r1=0.001 r0=0.001 x1=0 x0=0 c1=0 c0=0 length=0.001 switch=T
New Line.21CF_1050 phases=3 bus1=225841.1.2.3 bus2=21CF1050.1.2.3 r1=0.001 r0=0.001 x1=0 x0=0 c1=0 c0=0 length=0.001 switch=T
New Line.21CF_1053 phases=3 bus1=549221.1.2.3 bus2=21CF1053.1.2.3 r1=0.001 r0=0.001 x1=0 x0=0 c1=0 c0=0 length=0.001 switch=T
New Line.21CF_1064 phases=3 bus1=640921.1.2.3 bus2=21CF1064.1.2.3 r1=0.001 r0=0.001 x1=0 x0=0 c1=0 c0=0 length=0.001 switch=T
New Line.21CF_1088 phases=1 bus1=649481.2 bus2=21CF1088.2 r1=0.001 r0=0.001 x1=0 x0=0 c1=0 c0=0 length=0.001 switch=T
New Line.21CF_1114 phases=3 bus1=648111.1.2.3 bus2=21CF1114.1.2.3 r1=0.001 r0=0.001 x1=0 x0=0 c1=0 c0=0 length=0.001 switch=T
New Line.21CF_1121 phases=3 bus1=644981.1.2.3 bus2=21CF1121.1.2.3 r1=0.001 r0=0.001 x1=0 x0=0 c1=0 c0=0 length=0.001 switch=T
New Line.21CF_1200 phases=1 bus1=666371.2 bus2=21CF1200.2 r1=0.001 r0=0.001 x1=0 x0=0 c1=0 c0=0 length=0.001 switch=T
New Line.21CF_1207 phases=3 bus1=266851.1.2.3 bus2=21CF1207.1.2.3 r1=0.001 r0=0.001 x1=0 x0=0 c1=0 c0=0 length=0.001 switch=T
New Line.21CF_1258 phases=1 bus1=707401.3 bus2=21CF1258.3 r1=0.001 r0=0.001 x1=0 x0=0 c1=0 c0=0 length=0.001 switch=T
New Line.21CF_1276 phases=3 bus1=84001.1.2.3 bus2=21CF1276.1.2.3 r1=0.001 r0=0.001 x1=0 x0=0 c1=0 c0=0 length=0.001 switch=T
New Line.21CF_1355 phases=1 bus1=198921.2 bus2=21CF1355.2 r1=0.001 r0=0.001 x1=0 x0=0 c1=0 c0=0 length=0.001 switch=T
New Line.21CF_1371 phases=3 bus1=742201.1.2.3 bus2=21CF1371.1.2.3 r1=0.001 r0=0.001 x1=0 x0=0 c1=0 c0=0 length=0.001 switch=T
New Line.21CF_1393 phases=3 bus1=685651.1.2.3 bus2=21CF1393.1.2.3 r1=0.001 r0=0.001 x1=0 x0=0 c1=0 c0=0 length=0.001 switch=T
New Line.21CF_1414 phases=1 bus1=745881.1 bus2=21CF1414.1 r1=0.001 r0=0.001 x1=0 x0=0 c1=0 c0=0 length=0.001 switch=T
New Line.21CF_1524 phases=3 bus1=697721.1.2.3 bus2=21CF1524.1.2.3 r1=0.001 r0=0.001 x1=0 x0=0 c1=0 c0=0 length=0.001 switch=T
New Line.21CF_1529 phases=1 bus1=748391.1 bus2=21CF1529.1 r1=0.001 r0=0.001 x1=0 x0=0 c1=0 c0=0 length=0.001 switch=T
New Line.21CF_1541 phases=1 bus1=693341.3 bus2=21CF1541.3 r1=0.001 r0=0.001 x1=0 x0=0 c1=0 c0=0 length=0.001 switch=T
New Line.21CF_1549 phases=3 bus1=757351.1.2.3 bus2=21CF1549.1.2.3 r1=0.001 r0=0.001 x1=0 x0=0 c1=0 c0=0 length=0.001 switch=T
New Line.21CF_1715 phases=3 bus1=787421.1.2.3 bus2=21CF1715.1.2.3 r1=0.001 r0=0.001 x1=0 x0=0 c1=0 c0=0 length=0.001 switch=T
New Line.21CF_1724 phases=3 bus1=774021.1.2.3 bus2=21CF1724.1.2.3 r1=0.001 r0=0.001 x1=0 x0=0 c1=0 c0=0 length=0.001 switch=T
New Line.21CF_1774 phases=3 bus1=783471.1.2.3 bus2=21CF1774.1.2.3 r1=0.001 r0=0.001 x1=0 x0=0 c1=0 c0=0 length=0.001 switch=T
New Line.21CF_1817 phases=1 bus1=809961.2 bus2=21CF1817.2 r1=0.001 r0=0.001 x1=0 x0=0 c1=0 c0=0 length=0.001 switch=T
New Line.21CF_279 phases=3 bus1=359231.1.2.3 bus2=21CF279.1.2.3 r1=0.001 r0=0.001 x1=0 x0=0 c1=0 c0=0 length=0.001 switch=T
New Line.21CF_407 phases=3 bus1=620181.1.2.3 bus2=21CF407.1.2.3 r1=0.001 r0=0.001 x1=0 x0=0 c1=0 c0=0 length=0.001 switch=T
New Line.21CF_539 phases=1 bus1=551521.3 bus2=21CF539.3 r1=0.001 r0=0.001 x1=0 x0=0 c1=0 c0=0 length=0.001 switch=T
New Line.21CF_649 phases=3 bus1=206101.1.2.3 bus2=21CF649.1.2.3 r1=0.001 r0=0.001 x1=0 x0=0 c1=0 c0=0 length=0.001 switch=T
New Line.21CF_669 phases=2 bus1=322061.3.1 bus2=21CF669.3.1 r1=0.001 r0=0.001 x1=0 x0=0 c1=0 c0=0 length=0.001 switch=T
New Line.21CF_703 phases=1 bus1=318581.1 bus2=21CF703.1 r1=0.001 r0=0.001 x1=0 x0=0 c1=0 c0=0 length=0.001 switch=T
New Line.21CF_756 phases=3 bus1=585791.1.2.3 bus2=21CF756.1.2.3 r1=0.001 r0=0.001 x1=0 x0=0 c1=0 c0=0 length=0.001 switch=T
New Line.21CF_785 phases=3 bus1=364021.1.2.3 bus2=21CF785.1.2.3 r1=0.001 r0=0.001 x1=0 x0=0 c1=0 c0=0 length=0.001 switch=T
New Line.21CF_787 phases=3 bus1=440471.1.2.3 bus2=21CF787.1.2.3 r1=0.001 r0=0.001 x1=0 x0=0 c1=0 c0=0 length=0.001 switch=T
New Line.21CF_789 phases=1 bus1=132271.3 bus2=21CF789.3 r1=0.001 r0=0.001 x1=0 x0=0 c1=0 c0=0 length=0.001 switch=T
New Line.21CF_854 phases=2 bus1=629301.3.1 bus2=21CF854.3.1 r1=0.001 r0=0.001 x1=0 x0=0 c1=0 c0=0 length=0.001 switch=T
New Line.21CF_857 phases=3 bus1=402141.1.2.3 bus2=21CF857.1.2.3 r1=0.001 r0=0.001 x1=0 x0=0 c1=0 c0=0 length=0.001 switch=T
New Line.21CF_858 phases=3 bus1=611551.1.2.3 bus2=21CF858.1.2.3 r1=0.001 r0=0.001 x1=0 x0=0 c1=0 c0=0 length=0.001 switch=T
New Line.21CF_859 phases=3 bus1=611571.1.2.3 bus2=21CF859.1.2.3 r1=0.001 r0=0.001 x1=0 x0=0 c1=0 c0=0 length=0.001 switch=T
New Line.21CF_979 phases=3 bus1=602261.1.2.3 bus2=21CF979.1.2.3 r1=0.001 r0=0.001 x1=0 x0=0 c1=0 c0=0 length=0.001 switch=T
New Line.21CS_1397 phases=3 bus1=745831.1.2.3 bus2=21CS1397.1.2.3 r1=0.001 r0=0.001 x1=0 x0=0 c1=0 c0=0 length=0.001 switch=T
New Line.21CS_1530 phases=3 bus1=701291.1.2.3 bus2=21CS1530.1.2.3 r1=0.001 r0=0.001 x1=0 x0=0 c1=0 c0=0 length=0.001 switch=T
New Line.21CS_1648 phases=3 bus1=779091.1.2.3 bus2=21CS1648.1.2.3 r1=0.001 r0=0.001 x1=0 x0=0 c1=0 c0=0 length=0.001 switch=T
New Line.21CS_555 phases=3 bus1=227211.1.2.3 bus2=21CS555.1.2.3 r1=0.001 r0=0.001 x1=0 x0=0 c1=0 c0=0 length=0.001 switch=T
New Line.21CS_720 phases=3 bus1=257721.1.2.3 bus2=21CS720.1.2.3 r1=0.001 r0=0.001 x1=0 x0=0 c1=0 c0=0 length=0.001 switch=T
New Line.21CS_728 phases=3 bus1=368511.1.2.3 bus2=21CS728.1.2.3 r1=0.001 r0=0.001 x1=0 x0=0 c1=0 c0=0 length=0.001 switch=T
New Line.21FR_1033 phases=3 bus1=551501.1.2.3 bus2=21FR1033.1.2.3 r1=0.001 r0=0.001 x1=0 x0=0 c1=0 c0=0 length=0.001 switch=T
New Line.21FR_233 phases=3 bus1=678071.1.2.3 bus2=21FR233.1.2.3 r1=0.001 r0=0.001 x1=0 x0=0 c1=0 c0=0 length=0.001 switch=T
New Line.21FR_238 phases=3 bus1=121641.1.2.3 bus2=21FR238.1.2.3 r1=0.001 r0=0.001 x1=0 x0=0 c1=0 c0=0 length=0.001 switch=T
New Line.21FR_841 phases=3 bus1=461711.1.2.3 bus2=21FR841.1.2.3 r1=0.001 r0=0.001 x1=0 x0=0 c1=0 c0=0 length=0.001 switch=T
New Line.21FR_856 phases=3 bus1=476451.1.2.3 bus2=21FR856.1.2.3 r1=0.001 r0=0.001 x1=0 x0=0 c1=0 c0=0 length=0.001 switch=T
New Line.21RL_1415 phases=3 bus1=486331.1.2.3 bus2=21RL1415.1.2.3 r1=0.001 r0=0.001 x1=0 x0=0 c1=0 c0=0 length=0.001 switch=T
New Line.21RL_1591 phases=3 bus1=756581.1.2.3 bus2=21RL1591.1.2.3 r1=0.001 r0=0.001 x1=0 x0=0 c1=0 c0=0 length=0.001 switch=T
New Line.21RL_237 phases=3 bus1=700421.1.2.3 bus2=21RL237.1.2.3 r1=0.001 r0=0.001 x1=0 x0=0 c1=0 c0=0 length=0.001 switch=T
New Line.21SA_579 phases=3 bus1=368521.1.2.3 bus2=21SA579.1.2.3 r1=0.001 r0=0.001 x1=0 x0=0 c1=0 c0=0 length=0.001 switch=T
New Line.33CF_1115 phases=1 bus1=648181.2 bus2=33CF1115.2 r1=0.001 r0=0.001 x1=0 x0=0 c1=0 c0=0 length=0.001 switch=T
New Line.33CF_1488 phases=1 bus1=689241.2 bus2=33CF1488.2 r1=0.001 r0=0.001 x1=0 x0=0 c1=0 c0=0 length=0.001 switch=T
New Line.33CF_1489 phases=1 bus1=764601.2 bus2=33CF1489.2 r1=0.001 r0=0.001 x1=0 x0=0 c1=0 c0=0 length=0.001 switch=T
New Line.33CF_1490 phases=1 bus1=689281.1 bus2=33CF1490.1 r1=0.001 r0=0.001 x1=0 x0=0 c1=0 c0=0 length=0.001 switch=T
New Line.33CF_1596 phases=1 bus1=796481.2 bus2=33CF1596.2 r1=0.001 r0=0.001 x1=0 x0=0 c1=0 c0=0 length=0.001 switch=T
New Line.33CF_1759 phases=1 bus1=798291.1 bus2=33CF1759.1 r1=0.001 r0=0.001 x1=0 x0=0 c1=0 c0=0 length=0.001 switch=T
New Line.33CF_1769 phases=3 bus1=295191.1.2.3 bus2=33CF1769.1.2.3 r1=0.001 r0=0.001 x1=0 x0=0 c1=0 c0=0 length=0.001 switch=T
New Line.33CF_1810 phases=3 bus1=805661.1.2.3 bus2=33CF1810.1.2.3 r1=0.001 r0=0.001 x1=0 x0=0 c1=0 c0=0 length=0.001 switch=T
New Line.33CF_1884 phases=1 bus1=797411.2 bus2=33CF1884.2 r1=0.001 r0=0.001 x1=0 x0=0 c1=0 c0=0 length=0.001 switch=T
New Line.33CF_1885 phases=1 bus1=797161.3 bus2=33CF1885.3 r1=0.001 r0=0.001 x1=0 x0=0 c1=0 c0=0 length=0.001 switch=T
New Line.33CF_1886 phases=1 bus1=797181.2 bus2=33CF1886.2 r1=0.001 r0=0.001 x1=0 x0=0 c1=0 c0=0 length=0.001 switch=T
New Line.33CF_1916 phases=3 bus1=815371.1.2.3 bus2=33CF1916.1.2.3 r1=0.001 r0=0.001 x1=0 x0=0 c1=0 c0=0 length=0.001 switch=T
New Line.33CF_382 phases=1 bus1=26131.3 bus2=33CF382.3 r1=0.001 r0=0.001 x1=0 x0=0 c1=0 c0=0 length=0.001 switch=T
New Line.33CF_749 phases=1 bus1=584251.3 bus2=33CF749.3 r1=0.001 r0=0.001 x1=0 x0=0 c1=0 c0=0 length=0.001 switch=T
New Line.33CF_935 phases=3 bus1=797201.1.2.3 bus2=33CF935.1.2.3 r1=0.001 r0=0.001 x1=0 x0=0 c1=0 c0=0 length=0.001 switch=T
New Line.33FR_1463 phases=3 bus1=805381.1.2.3 bus2=33FR1463.1.2.3 r1=0.001 r0=0.001 x1=0 x0=0 c1=0 c0=0 length=0.001 switch=T
New Line.33FR_383 phases=3 bus1=755261.1.2.3 bus2=33FR383.1.2.3 r1=0.001 r0=0.001 x1=0 x0=0 c1=0 c0=0 length=0.001 switch=T
New Line.33FS_381 phases=1 bus1=650811.3 bus2=33FS381.3 r1=0.001 r0=0.001 x1=0 x0=0 c1=0 c0=0 length=0.001 switch=T
New Line.3CF_1013 phases=3 bus1=602381.1.2.3 bus2=3CF1013.1.2.3 r1=0.001 r0=0.001 x1=0 x0=0 c1=0 c0=0 length=0.001 switch=T
New Line.3CF_1015 phases=3 bus1=604441.1.2.3 bus2=3CF1015.1.2.3 r1=0.001 r0=0.001 x1=0 x0=0 c1=0 c0=0 length=0.001 switch=T
New Line.3CF_1209 phases=3 bus1=718561.1.2.3 bus2=3CF1209.1.2.3 r1=0.001 r0=0.001 x1=0 x0=0 c1=0 c0=0 length=0.001 switch=T
New Line.3CF_1281 phases=3 bus1=729911.1.2.3 bus2=3CF1281.1.2.3 r1=0.001 r0=0.001 x1=0 x0=0 c1=0 c0=0 length=0.001 switch=T
New Line.3CF_1282 phases=3 bus1=770331.1.2.3 bus2=3CF1282.1.2.3 r1=0.001 r0=0.001 x1=0 x0=0 c1=0 c0=0 length=0.001 switch=T
New Line.3CF_1283 phases=1 bus1=770311.3 bus2=3CF1283.3 r1=0.001 r0=0.001 x1=0 x0=0 c1=0 c0=0 length=0.001 switch=T
New Line.3CF_1286 phases=1 bus1=731921.2 bus2=3CF1286.2 r1=0.001 r0=0.001 x1=0 x0=0 c1=0 c0=0 length=0.001 switch=T
New Line.3CF_1299 phases=3 bus1=731071.1.2.3 bus2=3CF1299.1.2.3 r1=0.001 r0=0.001 x1=0 x0=0 c1=0 c0=0 length=0.001 switch=T
New Line.3CF_1327 phases=1 bus1=675511.2 bus2=3CF1327.2 r1=0.001 r0=0.001 x1=0 x0=0 c1=0 c0=0 length=0.001 switch=T
New Line.3CF_1362 phases=1 bus1=742531.2 bus2=3CF1362.2 r1=0.001 r0=0.001 x1=0 x0=0 c1=0 c0=0 length=0.001 switch=T
New Line.3CF_1372 phases=1 bus1=265181.2 bus2=3CF1372.2 r1=0.001 r0=0.001 x1=0 x0=0 c1=0 c0=0 length=0.001 switch=T
New Line.3CF_1391 phases=3 bus1=681161.1.2.3 bus2=3CF1391.1.2.3 r1=0.001 r0=0.001 x1=0 x0=0 c1=0 c0=0 length=0.001 switch=T
New Line.3CF_1412 phases=1 bus1=194591.3 bus2=3CF1412.3 r1=0.001 r0=0.001 x1=0 x0=0 c1=0 c0=0 length=0.001 switch=T
New Line.3CF_1534 phases=3 bus1=764531.1.2.3 bus2=3CF1534.1.2.3 r1=0.001 r0=0.001 x1=0 x0=0 c1=0 c0=0 length=0.001 switch=T
New Line.3CF_1838 phases=1 bus1=799961.1 bus2=3CF1838.1 r1=0.001 r0=0.001 x1=0 x0=0 c1=0 c0=0 length=0.001 switch=T
New Line.3CF_287 phases=3 bus1=148421.1.2.3 bus2=3CF287.1.2.3 r1=0.001 r0=0.001 x1=0 x0=0 c1=0 c0=0 length=0.001 switch=T
New Line.3CF_657 phases=3 bus1=357031.1.2.3 bus2=3CF657.1.2.3 r1=0.001 r0=0.001 x1=0 x0=0 c1=0 c0=0 length=0.001 switch=T
New Line.3CF_762 phases=1 bus1=588061.2 bus2=3CF762.2 r1=0.001 r0=0.001 x1=0 x0=0 c1=0 c0=0 length=0.001 switch=T
New Line.3CF_786 phases=1 bus1=797791.1 bus2=3CF786.1 r1=0.001 r0=0.001 x1=0 x0=0 c1=0 c0=0 length=0.001 switch=T
New Line.3CF_790 phases=3 bus1=315091.1.2.3 bus2=3CF790.1.2.3 r1=0.001 r0=0.001 x1=0 x0=0 c1=0 c0=0 length=0.001 switch=T
New Line.3CF_826 phases=3 bus1=665411.1.2.3 bus2=3CF826.1.2.3 r1=0.001 r0=0.001 x1=0 x0=0 c1=0 c0=0 length=0.001 switch=T
New Line.3CF_969 phases=3 bus1=215281.1.2.3 bus2=3CF969.1.2.3 r1=0.001 r0=0.001 x1=0 x0=0 c1=0 c0=0 length=0.001 switch=T
New Line.3CF_982 phases=1 bus1=317621.2 bus2=3CF982.2 r1=0.001 r0=0.001 x1=0 x0=0 c1=0 c0=0 length=0.001 switch=T
New Line.3CS_1145 phases=3 bus1=646211.1.2.3 bus2=3CS1145.1.2.3 r1=0.001 r0=0.001 x1=0 x0=0 c1=0 c0=0 length=0.001 switch=T
New Line.3CS_283 phases=3 bus1=134221.1.2.3 bus2=3CS283.1.2.3 r1=0.001 r0=0.001 x1=0 x0=0 c1=0 c0=0 length=0.001 switch=T
New Line.3CS_822 phases=3 bus1=206591.1.2.3 bus2=3CS822.1.2.3 r1=0.001 r0=0.001 x1=0 x0=0 c1=0 c0=0 length=0.001 switch=T
New Line.3FR_201 phases=3 bus1=650431.1.2.3 bus2=3FR201.1.2.3 r1=0.001 r0=0.001 x1=0 x0=0 c1=0 c0=0 length=0.001 switch=T
New Line.3FR_284 phases=3 bus1=134241.1.2.3 bus2=3FR284.1.2.3 r1=0.001 r0=0.001 x1=0 x0=0 c1=0 c0=0 length=0.001 switch=T
New Line.9CF_1017 phases=3 bus1=768071.1.2.3 bus2=9CF1017.1.2.3 r1=0.001 r0=0.001 x1=0 x0=0 c1=0 c0=0 length=0.001 switch=T
New Line.9CF_1018 phases=1 bus1=603841.3 bus2=9CF1018.3 r1=0.001 r0=0.001 x1=0 x0=0 c1=0 c0=0 length=0.001 switch=T
New Line.9CF_1021 phases=1 bus1=559681.1 bus2=9CF1021.1 r1=0.001 r0=0.001 x1=0 x0=0 c1=0 c0=0 length=0.001 switch=T
New Line.9CF_1032 phases=3 bus1=633051.1.2.3 bus2=9CF1032.1.2.3 r1=0.001 r0=0.001 x1=0 x0=0 c1=0 c0=0 length=0.001 switch=T
New Line.9CF_1051 phases=1 bus1=485381.1 bus2=9CF1051.1 r1=0.001 r0=0.001 x1=0 x0=0 c1=0 c0=0 length=0.001 switch=T
New Line.9CF_1052 phases=1 bus1=386781.3 bus2=9CF1052.3 r1=0.001 r0=0.001 x1=0 x0=0 c1=0 c0=0 length=0.001 switch=T
New Line.9CF_1086 phases=1 bus1=114371.3 bus2=9CF1086.3 r1=0.001 r0=0.001 x1=0 x0=0 c1=0 c0=0 length=0.001 switch=T
New Line.9CF_1090 phases=1 bus1=385901.1 bus2=9CF1090.1 r1=0.001 r0=0.001 x1=0 x0=0 c1=0 c0=0 length=0.001 switch=T
New Line.9CF_1133 phases=1 bus1=96981.2 bus2=9CF1133.2 r1=0.001 r0=0.001 x1=0 x0=0 c1=0 c0=0 length=0.001 switch=T
New Line.9CF_1213 phases=3 bus1=553681.1.2.3 bus2=9CF1213.1.2.3 r1=0.001 r0=0.001 x1=0 x0=0 c1=0 c0=0 length=0.001 switch=T
New Line.9CF_1225 phases=3 bus1=618121.1.2.3 bus2=9CF1225.1.2.3 r1=0.001 r0=0.001 x1=0 x0=0 c1=0 c0=0 length=0.001 switch=T
New Line.9CF_1229 phases=1 bus1=724191.3 bus2=9CF1229.3 r1=0.001 r0=0.001 x1=0 x0=0 c1=0 c0=0 length=0.001 switch=T
New Line.9CF_1294 phases=1 bus1=743581.3 bus2=9CF1294.3 r1=0.001 r0=0.001 x1=0 x0=0 c1=0 c0=0 length=0.001 switch=T
New Line.9CF_1302 phases=1 bus1=743881.2 bus2=9CF1302.2 r1=0.001 r0=0.001 x1=0 x0=0 c1=0 c0=0 length=0.001 switch=T
New Line.9CF_1303 phases=1 bus1=743891.1 bus2=9CF1303.1 r1=0.001 r0=0.001 x1=0 x0=0 c1=0 c0=0 length=0.001 switch=T
New Line.9CF_1310 phases=1 bus1=739991.1 bus2=9CF1310.1 r1=0.001 r0=0.001 x1=0 x0=0 c1=0 c0=0 length=0.001 switch=T
New Line.9CF_1316 phases=3 bus1=740541.1.2.3 bus2=9CF1316.1.2.3 r1=0.001 r0=0.001 x1=0 x0=0 c1=0 c0=0 length=0.001 switch=T
New Line.9CF_1317 phases=1 bus1=674731.2 bus2=9CF1317.2 r1=0.001 r0=0.001 x1=0 x0=0 c1=0 c0=0 length=0.001 switch=T
New Line.9CF_1318 phases=1 bus1=674801.2 bus2=9CF1318.2 r1=0.001 r0=0.001 x1=0 x0=0 c1=0 c0=0 length=0.001 switch=T
New Line.9CF_1459 phases=3 bus1=678041.1.2.3 bus2=9CF1459.1.2.3 r1=0.001 r0=0.001 x1=0 x0=0 c1=0 c0=0 length=0.001 switch=T
New Line.9CF_1502 phases=1 bus1=757911.2 bus2=9CF1502.2 r1=0.001 r0=0.001 x1=0 x0=0 c1=0 c0=0 length=0.001 switch=T
New Line.9CF_1539 phases=3 bus1=683701.1.2.3 bus2=9CF1539.1.2.3 r1=0.001 r0=0.001 x1=0 x0=0 c1=0 c0=0 length=0.001 switch=T
New Line.9CF_1542 phases=1 bus1=515821.1 bus2=9CF1542.1 r1=0.001 r0=0.001 x1=0 x0=0 c1=0 c0=0 length=0.001 switch=T
New Line.9CF_1601 phases=1 bus1=775551.1 bus2=9CF1601.1 r1=0.001 r0=0.001 x1=0 x0=0 c1=0 c0=0 length=0.001 switch=T
New Line.9CF_1649 phases=1 bus1=778861.2 bus2=9CF1649.2 r1=0.001 r0=0.001 x1=0 x0=0 c1=0 c0=0 length=0.001 switch=T
New Line.9CF_1660 phases=3 bus1=815181.1.2.3 bus2=9CF1660.1.2.3 r1=0.001 r0=0.001 x1=0 x0=0 c1=0 c0=0 length=0.001 switch=T
New Line.9CF_1670 phases=1 bus1=782571.1 bus2=9CF1670.1 r1=0.001 r0=0.001 x1=0 x0=0 c1=0 c0=0 length=0.001 switch=T
New Line.9CF_1676 phases=3 bus1=791671.1.2.3 bus2=9CF1676.1.2.3 r1=0.001 r0=0.001 x1=0 x0=0 c1=0 c0=0 length=0.001 switch=T
New Line.9CF_1688 phases=1 bus1=774651.3 bus2=9CF1688.3 r1=0.001 r0=0.001 x1=0 x0=0 c1=0 c0=0 length=0.001 switch=T
New Line.9CF_1743 phases=1 bus1=779161.1 bus2=9CF1743.1 r1=0.001 r0=0.001 x1=0 x0=0 c1=0 c0=0 length=0.001 switch=T
New Line.9CF_1868 phases=3 bus1=810051.1.2.3 bus2=9CF1868.1.2.3 r1=0.001 r0=0.001 x1=0 x0=0 c1=0 c0=0 length=0.001 switch=T
New Line.9CF_1905 phases=1 bus1=811001.2 bus2=9CF1905.2 r1=0.001 r0=0.001 x1=0 x0=0 c1=0 c0=0 length=0.001 switch=T
New Line.9CF_241 phases=3 bus1=689991.1.2.3 bus2=9CF241.1.2.3 r1=0.001 r0=0.001 x1=0 x0=0 c1=0 c0=0 length=0.001 switch=T
New Line.9CF_254 phases=2 bus1=779031.2.3 bus2=9CF254.2.3 r1=0.001 r0=0.001 x1=0 x0=0 c1=0 c0=0 length=0.001 switch=T
New Line.9CF_255 phases=1 bus1=328861.3 bus2=9CF255.3 r1=0.001 r0=0.001 x1=0 x0=0 c1=0 c0=0 length=0.001 switch=T
New Line.9CF_267 phases=2 bus1=805791.3.1 bus2=9CF267.3.1 r1=0.001 r0=0.001 x1=0 x0=0 c1=0 c0=0 length=0.001 switch=T
New Line.9CF_374 phases=1 bus1=126091.2 bus2=9CF374.2 r1=0.001 r0=0.001 x1=0 x0=0 c1=0 c0=0 length=0.001 switch=T
New Line.9CF_377 phases=3 bus1=732721.1.2.3 bus2=9CF377.1.2.3 r1=0.001 r0=0.001 x1=0 x0=0 c1=0 c0=0 length=0.001 switch=T
New Line.9CF_378 phases=1 bus1=22321.3 bus2=9CF378.3 r1=0.001 r0=0.001 x1=0 x0=0 c1=0 c0=0 length=0.001 switch=T
New Line.9CF_380 phases=1 bus1=26121.3 bus2=9CF380.3 r1=0.001 r0=0.001 x1=0 x0=0 c1=0 c0=0 length=0.001 switch=T
New Line.9CF_730 phases=3 bus1=440791.1.2.3 bus2=9CF730.1.2.3 r1=0.001 r0=0.001 x1=0 x0=0 c1=0 c0=0 length=0.001 switch=T
New Line.9CF_899 phases=1 bus1=753931.2 bus2=9CF899.2 r1=0.001 r0=0.001 x1=0 x0=0 c1=0 c0=0 length=0.001 switch=T
New Line.9CF_915 phases=1 bus1=552541.3 bus2=9CF915.3 r1=0.001 r0=0.001 x1=0 x0=0 c1=0 c0=0 length=0.001 switch=T
New Line.9CF_961 phases=3 bus1=549201.1.2.3 bus2=9CF961.1.2.3 r1=0.001 r0=0.001 x1=0 x0=0 c1=0 c0=0 length=0.001 switch=T
New Line.9CF_971 phases=1 bus1=584061.2 bus2=9CF971.2 r1=0.001 r0=0.001 x1=0 x0=0 c1=0 c0=0 length=0.001 switch=T
New Line.9CF_974 phases=1 bus1=549181.2 bus2=9CF974.2 r1=0.001 r0=0.001 x1=0 x0=0 c1=0 c0=0 length=0.001 switch=T
New Line.9CF_984 phases=1 bus1=778241.3 bus2=9CF984.3 r1=0.001 r0=0.001 x1=0 x0=0 c1=0 c0=0 length=0.001 switch=T
New Line.9CS_1319 phases=3 bus1=679591.1.2.3 bus2=9CS1319.1.2.3 r1=0.001 r0=0.001 x1=0 x0=0 c1=0 c0=0 length=0.001 switch=T
New Line.9CS_1638 phases=3 bus1=779121.1.2.3 bus2=9CS1638.1.2.3 r1=0.001 r0=0.001 x1=0 x0=0 c1=0 c0=0 length=0.001 switch=T
New Line.9CS_1771 phases=3 bus1=805721.1.2.3 bus2=9CS1771.1.2.3 r1=0.001 r0=0.001 x1=0 x0=0 c1=0 c0=0 length=0.001 switch=T
New Line.9CS_240 phases=3 bus1=580871.1.2.3 bus2=9CS240.1.2.3 r1=0.001 r0=0.001 x1=0 x0=0 c1=0 c0=0 length=0.001 switch=T
New Line.9CS_257 phases=1 bus1=295431.1 bus2=9CS257.1 r1=0.001 r0=0.001 x1=0 x0=0 c1=0 c0=0 length=0.001 switch=T
New Line.9DJ_74 phases=3 bus1=9718_9718_1.1.2.3 bus2=9DJ74.1.2.3 r1=0.001 r0=0.001 x1=0 x0=0 c1=0 c0=0 length=0.001 switch=T
New Line.9FR_1031 phases=1 bus1=803231.1 bus2=9FR1031.1 r1=0.001 r0=0.001 x1=0 x0=0 c1=0 c0=0 length=0.001 switch=T
New Line.9FR_268 phases=3 bus1=610531.1.2.3 bus2=9FR268.1.2.3 r1=0.001 r0=0.001 x1=0 x0=0 c1=0 c0=0 length=0.001 switch=T
New Line.9FR_33 phases=3 bus1=583121.1.2.3 bus2=9FR33.1.2.3 r1=0.001 r0=0.001 x1=0 x0=0 c1=0 c0=0 length=0.001 switch=T
New Line.9FR_384 phases=1 bus1=14891.1 bus2=9FR384.1 r1=0.001 r0=0.001 x1=0 x0=0 c1=0 c0=0 length=0.001 switch=T
New Line.9FR_799 phases=3 bus1=697601.1.2.3 bus2=9FR799.1.2.3 r1=0.001 r0=0.001 x1=0 x0=0 c1=0 c0=0 length=0.001 switch=T
New Line.9FS_379 phases=1 bus1=124091.1 bus2=9FS379.1 r1=0.001 r0=0.001 x1=0 x0=0 c1=0 c0=0 length=0.001 switch=T
New Line.9RL_1520 phases=3 bus1=755511.1.2.3 bus2=9RL1520.1.2.3 r1=0.001 r0=0.001 x1=0 x0=0 c1=0 c0=0 length=0.001 switch=T
New Line.9SA_1521 phases=3 bus1=690041.1.2.3 bus2=9SA1521.1.2.3 r1=0.001 r0=0.001 x1=0 x0=0 c1=0 c0=0 length=0.001 switch=T
