examples/feeders/9718_9718_1/007_transformadores.dss
New Transformer.TRF_13_1372A phases=1 windings=3 buses=[MRT_4811TRF_13_1372A.2 ET13_1372.1.4 ET13_1372.4.2] conns=[Wye Wye Wye] kvs=[13.3367912182804 0.22 0.22] kvas=[5 5 5] %loadloss=2.1 %noloadloss=0.7
New Linecode.LC_MRT_TRF_13_1372A_1 nphases=1 basefreq=60 r1=15000 x1=0 units=km normamps=0
New Linecode.LC_MRT_TRF_13_1372A_2 nphases=2 basefreq=60 r1=15000 x1=0 units=km normamps=0
New Linecode.LC_MRT_TRF_13_1372A_3 nphases=3 basefreq=60 r1=15000 x1=0 units=km normamps=0
New Linecode.LC_MRT_TRF_13_1372A_4 nphases=4 basefreq=60 r1=15000 x1=0 units=km normamps=0
New Line.Resist_MTR_TRF_13_1372A phases=1 bus1=4811.2 bus2= MRT_4811TRF_13_1372A.2 linecode=LC_MRT_TRF_13_1372A_1 length=0.001 units=km
New Reactor.TRF_13_1372A_R phases=1 bus1=ET13_1372.4 R=15 X=0 basefreq=60
New Transformer.TRF_13_1373A phases=1 windings=3 buses=[19261.3.1 ET13_1373.1.4 ET13_1373.4.2] conns=[Delta Wye Wye] kvs=[23.1 0.22 0.22] kvas=[10 10 10] %loadloss=1.15 %noloadloss=0.4
New Reactor.TRF_13_1373A_R phases=1 bus1=ET13_1373.4 R=15 X=0 basefreq=60
New Transformer.TRF_13_1374A phases=1 windings=3 buses=[MRT_6651TRF_13_1374A.1 ET13_1374.1.4 ET13_1374.4.2] conns=[Wye Wye Wye] kvs=[13.3367912182804 0.22 0.22] kvas=[15 15 15] %loadloss=1.766667 %noloadloss=0.433333
New Linecode.LC_MRT_TRF_13_1374A_1 nphases=1 basefreq=60 r1=15000 x1=0 units=km normamps=0
New Linecode.LC_MRT_TRF_13_1374A_2 nphases=2 basefreq=60 r1=15000 x1=0 units=km normamps=0
New Linecode.LC_MRT_TRF_13_1374A_3 nphases=3 basefreq=60 r1=15000 x1=0 units=km normamps=0
New Linecode.LC_MRT_TRF_13_1374A_4 nphases=4 basefreq=60 r1=15000 x1=0 units=km normamps=0
New Line.Resist_MTR_TRF_13_1374A phases=1 bus1=6651.1 bus2= MRT_6651TRF_13_1374A.1 linecode=LC_MRT_TRF_13_1374A_1 length=0.001 units=km
New Reactor.TRF_13_1374A_R phases=1 bus1=ET13_1374.4 R=15 X=0 basefreq=60
New Transformer.TRF_13_1730A phases=1 windings=3 buses=[MRT_5741TRF_13_1730A.2 ET13_1730.1.4 ET13_1730.4.2] conns=[Wye Wye Wye] kvs=[13.3367912182804 0.22 0.22] kvas=[10 10 10] %loadloss=1.95 %noloadloss=0.5
New Linecode.LC_MRT_TRF_13_1730A_1 nphases=1 basefreq=60 r1=15000 x1=0 units=km normamps=0
New Linecode.LC_MRT_TRF_13_1730A_2 nphases=2 basefreq=60 r1=15000 x1=0 units=km normamps=0
New Linecode.LC_MRT_TRF_13_1730A_3 nphases=3 basefreq=60 r1=15000 x1=0 units=km normamps=0
New Linecode.LC_MRT_TRF_13_1730A_4 nphases=4 basefreq=60 r1=15000 x1=0 units=km normamps=0
New Line.Resist_MTR_TRF_13_1730A phases=1 bus1=5741.2 bus2= MRT_5741TRF_13_1730A.2 linecode=LC_MRT_TRF_13_1730A_1 length=0.001 units=km
New Reactor.TRF_13_1730A_R phases=1 bus1=ET13_1730.4 R=15 X=0 basefreq=60
New Transformer.TRF_13_1775A phases=1 windings=3 buses=[MRT_791051TRF_13_1775A.1 ET13_1775.1.4 ET13_1775.4.2] conns=[Wye Wye Wye] kvs=[13.3367912182804 0.22 0.22] kvas=[10 10 10] %loadloss=1.95 %noloadloss=0.5
New Linecode.LC_MRT_TRF_13_1775A_1 nphases=1 basefreq=60 r1=15000 x1=0 units=km normamps=0
New Linecode.LC_MRT_TRF_13_1775A_2 nphases=2 basefreq=60 r1=15000 x1=0 units=km normamps=0
New Linecode.LC_MRT_TRF_13_1775A_3 nphases=3 basefreq=60 r1=15000 x1=0 units=km normamps=0
New Linecode.LC_MRT_TRF_13_1775A_4 nphases=4 basefreq=60 r1=15000 x1=0 units=km normamps=0
New Line.Resist_MTR_TRF_13_1775A phases=1 bus1=791051.1 bus2= MRT_791051TRF_13_1775A.1 linecode=LC_MRT_TRF_13_1775A_1 length=0.001 units=km
New Reactor.TRF_13_1775A_R phases=1 bus1=ET13_1775.4 R=15 X=0 basefreq=60
New Transformer.TRF_13_2236A phases=1 windings=3 buses=[MRT_20271TRF_13_2236A.3 ET13_2236.1.4 ET13_2236.4.2] conns=[Wye Wye Wye] kvs=[13.3367912182804 0.22 0.22] kvas=[10 10 10] %loadloss=1.95 %noloadloss=0.5
New Linecode.LC_MRT_TRF_13_2236A_1 nphases=1 basefreq=60 r1=15000 x1=0 units=km normamps=0
New Linecode.LC_MRT_TRF_13_2236A_2 nphases=2 basefreq=60 r1=15000 x1=0 units=km normamps=0
New Linecode.LC_MRT_TRF_13_2236A_3 nphases=3 basefreq=60 r1=15000 x1=0 units=km normamps=0
New Linecode.LC_MRT_TRF_13_2236A_4 nphases=4 basefreq=60 r1=15000 x1=0 units=km normamps=0
New Line.Resist_MTR_TRF_13_2236A phases=1 bus1=20271.3 bus2= MRT_20271TRF_13_2236A.3 linecode=LC_MRT_TRF_13_2236A_1 length=0.001 units=km
New Reactor.TRF_13_2236A_R phases=1 bus1=ET13_2236.4 R=15 X=0 basefreq=60
New Transformer.TRF_13_2538A phases=1 windings=3 buses=[MRT_366271TRF_13_2538A.2 ET13_2538.1.4 ET13_2538.4.2] conns=[Wye Wye Wye] kvs=[13.3367912182804 0.22 0.22] kvas=[10 10 10] %loadloss=1.95 %noloadloss=0.5
New Linecode.LC_MRT_TRF_13_2538A_1 nphases=1 basefreq=60 r1=15000 x1=0 units=km normamps=0
New Linecode.LC_MRT_TRF_13_2538A_2 nphases=2 basefreq=60 r1=15000 x1=0 units=km normamps=0
New Linecode.LC_MRT_TRF_13_2538A_3 nphases=3 basefreq=60 r1=15000 x1=0 units=km normamps=0
New Linecode.LC_MRT_TRF_13_2538A_4 nphases=4 basefreq=60 r1=15000 x1=0 units=km normamps=0
New Line.Resist_MTR_TRF_13_2538A phases=1 bus1=366271.2 bus2= MRT_366271TRF_13_2538A.2 linecode=LC_MRT_TRF_13_2538A_1 length=0.001 units=km
New Reactor.TRF_13_2538A_R phases=1 bus1=ET13_2538.4 R=15 X=0 basefreq=60
New Transformer.TRF_13_2646A phases=1 windings=3 buses=[MRT_464051TRF_13_2646A.1 ET13_2646.1.4 ET13_2646.4.2] conns=[Wye Wye Wye] kvs=[13.3367912182804 0.22 0.22] kvas=[10 10 10] %loadloss=1.95 %noloadloss=0.5
New Linecode.LC_MRT_TRF_13_2646A_1 nphases=1 basefreq=60 r1=15000 x1=0 units=km normamps=0
New Linecode.LC_MRT_TRF_13_2646A_2 nphases=2 basefreq=60 r1=15000 x1=0 units=km normamps=0
New Linecode.LC_MRT_TRF_13_2646A_3 nphases=3 basefreq=60 r1=15000 x1=0 units=km normamps=0
New Linecode.LC_MRT_TRF_13_2646A_4 nphases=4 basefreq=60 r1=15000 x1=0 units=km normamps=0
New Line.Resist_MTR_TRF_13_2646A phases=1 bus1=464051.1 bus2= MRT_464051TRF_13_2646A.1 linecode=LC_MRT_TRF_13_2646A_1 length=0.001 units=km
New Reactor.TRF_13_2646A_R phases=1 bus1=ET13_2646.4 R=15 X=0 basefreq=60
New Transformer.TRF_13_2976A phases=3 windings=2 buses=[20131.1.2.3 ET13_2976.1.2.3.4] conns=[Delta Wye] kvs=[23.1 0.38] kvas=[30 30] %loadloss=2.1 %noloadloss=0.533333
New Reactor.TRF_13_2976A_R phases=1 bus1=ET13_2976.4 R=15 X=0 basefreq=60
New Transformer.TRF_13_3152A phases=1 windings=3 buses=[MRT_140271TRF_13_3152A.1 ET13_3152.1.4 ET13_3152.4.2] conns=[Wye Wye Wye] kvs=[13.3367912182804 0.22 0.22] kvas=[10 10 10] %loadloss=1.95 %noloadloss=0.5
New Linecode.LC_MRT_TRF_13_3152A_1 nphases=1 basefreq=60 r1=15000 x1=0 units=km normamps=0
New Linecode.LC_MRT_TRF_13_3152A_2 nphases=2 basefreq=60 r1=15000 x1=0 units=km normamps=0
New Linecode.LC_MRT_TRF_13_3152A_3 nphases=3 basefreq=60 r1=15000 x1=0 units=km normamps=0
New Linecode.LC_MRT_TRF_13_3152A_4 nphases=4 basefreq=60 r1=15000 x1=0 units=km normamps=0
New Line.Resist_MTR_TRF_13_3152A phases=1 bus1=140271.1 bus2= MRT_140271TRF_13_3152A.1 linecode=LC_MRT_TRF_13_3152A_1 length=0.001 units=km
New Reactor.TRF_13_3152A_R phases=1 bus1=ET13_3152.4 R=15 X=0 basefreq=60
New Transformer.TRF_13_3202A phases=1 windings=3 buses=[MRT_625051TRF_13_3202A.1 ET13_3202.1.4 ET13_3202.4.2] conns=[Wye Wye Wye] kvs=[13.3367912182804 0.22 0.22] kvas=[10 10 10] %loadloss=1.95 %noloadloss=0.5
New Linecode.LC_MRT_TRF_13_3202A_1 nphases=1 basefreq=60 r1=15000 x1=0 units=km normamps=0
New Linecode.LC_MRT_TRF_13_3202A_2 nphases=2 basefreq=60 r1=15000 x1=0 units=km normamps=0
New Linecode.LC_MRT_TRF_13_3202A_3 nphases=3 basefreq=60 r1=15000 x1=0 units=km normamps=0
New Linecode.LC_MRT_TRF_13_3202A_4 nphases=4 basefreq=60 r1=15000 x1=0 units=km normamps=0
New Line.Resist_MTR_TRF_13_3202A phases=1 bus1=625051.1 bus2= MRT_625051TRF_13_3202A.1 linecode=LC_MRT_TRF_13_3202A_1 length=0.001 units=km
New Reactor.TRF_13_3202A_R phases=1 bus1=ET13_3202.4 R=15 X=0 basefreq=60
New Transformer.TRF_13_3259A phases=1 windings=3 buses=[MRT_17311TRF_13_3259A.1 ET13_3259.1.4 ET13_3259.4.2] conns=[Wye Wye Wye] kvs=[13.3367912182804 0.22 0.22] kvas=[10 10 10] %loadloss=1.95 %noloadloss=0.5
New Linecode.LC_MRT_TRF_13_3259A_1 nphases=1 basefreq=60 r1=15000 x1=0 units=km normamps=0
New Linecode.LC_MRT_TRF_13_3259A_2 nphases=2 basefreq=60 r1=15000 x1=0 units=km normamps=0
New Linecode.LC_MRT_TRF_13_3259A_3 nphases=3 basefreq=60 r1=15000 x1=0 units=km normamps=0
New Linecode.LC_MRT_TRF_13_3259A_4 nphases=4 basefreq=60 r1=15000 x1=0 units=km normamps=0
New Line.Resist_MTR_TRF_13_3259A phases=1 bus1=17311.1 bus2= MRT_17311TRF_13_3259A.1 linecode=LC_MRT_TRF_13_3259A_1 length=0.001 units=km
New Reactor.TRF_13_3259A_R phases=1 bus1=ET13_3259.4 R=15 X=0 basefreq=60
New Transformer.TRF_13_3414A phases=1 windings=3 buses=[MRT_36751TRF_13_3414A.1 ET13_3414.1.4 ET13_3414.4.2] conns=[Wye Wye Wye] kvs=[13.3367912182804 0.22 0.22] kvas=[10 10 10] %loadloss=1.95 %noloadloss=0.5
New Linecode.LC_MRT_TRF_13_3414A_1 nphases=1 basefreq=60 r1=15000 x1=0 units=km normamps=0
New Linecode.LC_MRT_TRF_13_3414A_2 nphases=2 basefreq=60 r1=15000 x1=0 units=km normamps=0
New Linecode.LC_MRT_TRF_13_3414A_3 nphases=3 basefreq=60 r1=15000 x1=0 units=km normamps=0
New Linecode.LC_MRT_TRF_13_3414A_4 nphases=4 basefreq=60 r1=15000 x1=0 units=km normamps=0
New Line.Resist_MTR_TRF_13_3414A phases=1 bus1=36751.1 bus2= MRT_36751TRF_13_3414A.1 linecode=LC_MRT_TRF_13_3414A_1 length=0.001 units=km
New Reactor.TRF_13_3414A_R phases=1 bus1=ET13_3414.4 R=15 X=0 basefreq=60
New Transformer.TRF_13_3648A phases=1 windings=3 buses=[MRT_5891TRF_13_3648A.2 ET13_3648.1.4 ET13_3648.4.2] conns=[Wye Wye Wye] kvs=[13.3367912182804 0.22 0.22] kvas=[10 10 10] %loadloss=1.95 %noloadloss=0.5
New Linecode.LC_MRT_TRF_13_3648A_1 nphases=1 basefreq=60 r1=15000 x1=0 units=km normamps=0
New Linecode.LC_MRT_TRF_13_3648A_2 nphases=2 basefreq=60 r1=15000 x1=0 units=km normamps=0
New Linecode.LC_MRT_TRF_13_3648A_3 nphases=3 basefreq=60 r1=15000 x1=0 units=km normamps=0
New Linecode.LC_MRT_TRF_13_3648A_4 nphases=4 basefreq=60 r1=15000 x1=0 units=km normamps=0
New Line.Resist_MTR_TRF_13_3648A phases=1 bus1=5891.2 bus2= MRT_5891TRF_13_3648A.2 linecode=LC_MRT_TRF_13_3648A_1 length=0.001 units=km
New Reactor.TRF_13_3648A_R phases=1 bus1=ET13_3648.4 R=15 X=0 basefreq=60
New Transformer.TRF_13_3673A phases=1 windings=3 buses=[MRT_638701TRF_13_3673A.1 ET13_3673.1.4 ET13_3673.4.2] conns=[Wye Wye Wye] kvs=[13.3367912182804 0.22 0.22] kvas=[10 10 10] %loadloss=1.95 %noloadloss=0.5
New Linecode.LC_MRT_TRF_13_3673A_1 nphases=1 basefreq=60 r1=15000 x1=0 units=km normamps=0
New Linecode.LC_MRT_TRF_13_3673A_2 nphases=2 basefreq=60 r1=15000 x1=0 units=km normamps=0
New Linecode.LC_MRT_TRF_13_3673A_3 nphases=3 basefreq=60 r1=15000 x1=0 units=km normamps=0
New Linecode.LC_MRT_TRF_13_3673A_4 nphases=4 basefreq=60 r1=15000 x1=0 units=km normamps=0
New Line.Resist_MTR_TRF_13_3673A phases=1 bus1=638701.1 bus2= MRT_638701TRF_13_3673A.1 linecode=LC_MRT_TRF_13_3673A_1 length=0.001 units=km
New Reactor.TRF_13_3673A_R phases=1 bus1=ET13_3673.4 R=15 X=0 basefreq=60
New Transformer.TRF_13_3927A phases=1 windings=3 buses=[MRT_136451TRF_13_3927A.1 ET13_3927.1.4 ET13_3927.4.2] conns=[Wye Wye Wye] kvs=[13.3367912182804 0.22 0.22] kvas=[10 10 10] %loadloss=1.95 %noloadloss=0.5
New Linecode.LC_MRT_TRF_13_3927A_1 nphases=1 basefreq=60 r1=15000 x1=0 units=km normamps=0
New Linecode.LC_MRT_TRF_13_3927A_2 nphases=2 basefreq=60 r1=15000 x1=0 units=km normamps=0
New Linecode.LC_MRT_TRF_13_3927A_3 nphases=3 basefreq=60 r1=15000 x1=0 units=km normamps=0
New Linecode.LC_MRT_TRF_13_3927A_4 nphases=4 basefreq=60 r1=15000 x1=0 units=km normamps=0
New Line.Resist_MTR_TRF_13_3927A phases=1 bus1=136451.1 bus2= MRT_136451TRF_13_3927A.1 linecode=LC_MRT_TRF_13_3927A_1 length=0.001 units=km
New Reactor.TRF_13_3927A_R phases=1 bus1=ET13_3927.4 R=15 X=0 basefreq=60
New Transformer.TRF_13_4014A phases=1 windings=2 buses=[MRT_652511TRF_13_4014A.3 ET13_4014.1.4] conns=[Wye Wye] kvs=[13.3367912182804 0.22] kvas=[5 5] %loadloss=2.1 %noloadloss=0.7
New Linecode.LC_MRT_TRF_13_4014A_1 nphases=1 basefreq=60 r1=15000 x1=0 units=km normamps=0
New Linecode.LC_MRT_TRF_13_4014A_2 nphases=2 basefreq=60 r1=15000 x1=0 units=km normamps=0
New Linecode.LC_MRT_TRF_13_4014A_3 nphases=3 basefreq=60 r1=15000 x1=0 units=km normamps=0
New Linecode.LC_MRT_TRF_13_4014A_4 nphases=4 basefreq=60 r1=15000 x1=0 units=km normamps=0
New Line.Resist_MTR_TRF_13_4014A phases=1 bus1=652511.3 bus2= MRT_652511TRF_13_4014A.3 linecode=LC_MRT_TRF_13_4014A_1 length=0.001 units=km
New Reactor.TRF_13_4014A_R phases=1 bus1=ET13_4014.4 R=15 X=0 basefreq=60
New Transformer.TRF_13_4133A phases=1 windings=3 buses=[MRT_35901TRF_13_4133A.2 ET13_4133.1.4 ET13_4133.4.2] conns=[Wye Wye Wye] kvs=[13.3367912182804 0.22 0.22] kvas=[15 15 15] %loadloss=1.766667 %noloadloss=0.433333
New Linecode.LC_MRT_TRF_13_4133A_1 nphases=1 basefreq=60 r1=15000 x1=0 units=km normamps=0
New Linecode.LC_MRT_TRF_13_4133A_2 nphases=2 basefreq=60 r1=15000 x1=0 units=km normamps=0
New Linecode.LC_MRT_TRF_13_4133A_3 nphases=3 basefreq=60 r1=15000 x1=0 units=km normamps=0
New Linecode.LC_MRT_TRF_13_4133A_4 nphases=4 basefreq=60 r1=15000 x1=0 units=km normamps=0
New Line.Resist_MTR_TRF_13_4133A phases=1 bus1=35901.2 bus2= MRT_35901TRF_13_4133A.2 linecode=LC_MRT_TRF_13_4133A_1 length=0.001 units=km
New Reactor.TRF_13_4133A_R phases=1 bus1=ET13_4133.4 R=15 X=0 basefreq=60
New Transformer.TRF_13_4284A phases=1 windings=3 buses=[MRT_344001TRF_13_4284A.2 ET13_4284.1.4 ET13_4284.4.2] conns=[Wye Wye Wye] kvs=[13.3367912182804 0.22 0.22] kvas=[10 10 10] %loadloss=1.95 %noloadloss=0.5
New Linecode.LC_MRT_TRF_13_4284A_1 nphases=1 basefreq=60 r1=15000 x1=0 units=km normamps=0
New Linecode.LC_MRT_TRF_13_4284A_2 nphases=2 basefreq=60 r1=15000 x1=0 units=km normamps=0
New Linecode.LC_MRT_TRF_13_4284A_3 nphases=3 basefreq=60 r1=15000 x1=0 units=km normamps=0
New Linecode.LC_MRT_TRF_13_4284A_4 nphases=4 basefreq=60 r1=15000 x1=0 units=km normamps=0
New Line.Resist_MTR_TRF_13_4284A phases=1 bus1=344001.2 bus2= MRT_344001TRF_13_4284A.2 linecode=LC_MRT_TRF_13_4284A_1 length=0.001 units=km
New Reactor.TRF_13_4284A_R phases=1 bus1=ET13_4284.4 R=15 X=0 basefreq=60
New Transformer.TRF_13_4285A phases=1 windings=3 buses=[MRT_4951TRF_13_4285A.2 ET13_4285.1.4 ET13_4285.4.2] conns=[Wye Wye Wye] kvs=[13.3367912182804 0.22 0.22] kvas=[10 10 10] %loadloss=1.95 %noloadloss=0.5
New Linecode.LC_MRT_TRF_13_4285A_1 nphases=1 basefreq=60 r1=15000 x1=0 units=km normamps=0
New Linecode.LC_MRT_TRF_13_4285A_2 nphases=2 basefreq=60 r1=15000 x1=0 units=km normamps=0
New Linecode.LC_MRT_TRF_13_4285A_3 nphases=3 basefreq=60 r1=15000 x1=0 units=km normamps=0
New Linecode.LC_MRT_TRF_13_4285A_4 nphases=4 basefreq=60 r1=15000 x1=0 units=km normamps=0
New Line.Resist_MTR_TRF_13_4285A phases=1 bus1=4951.2 bus2= MRT_4951TRF_13_4285A.2 linecode=LC_MRT_TRF_13_4285A_1 length=0.001 units=km
New Reactor.TRF_13_4285A_R phases=1 bus1=ET13_4285.4 R=15 X=0 basefreq=60
New Transformer.TRF_13_4318A phases=1 windings=3 buses=[MRT_304001TRF_13_4318A.1 ET13_4318.1.4 ET13_4318.4.2] conns=[Wye Wye Wye] kvs=[13.3367912182804 0.22 0.22] kvas=[10 10 10] %loadloss=1.95 %noloadloss=0.5
New Linecode.LC_MRT_TRF_13_4318A_1 nphases=1 basefreq=60 r1=15000 x1=0 units=km normamps=0
New Linecode.LC_MRT_TRF_13_4318A_2 nphases=2 basefreq=60 r1=15000 x1=0 units=km normamps=0
New Linecode.LC_MRT_TRF_13_4318A_3 nphases=3 basefreq=60 r1=15000 x1=0 units=km normamps=0
New Linecode.LC_MRT_TRF_13_4318A_4 nphases=4 basefreq=60 r1=15000 x1=0 units=km normamps=0
New Line.Resist_MTR_TRF_13_4318A phases=1 bus1=304001.1 bus2= MRT_304001TRF_13_4318A.1 linecode=LC_MRT_TRF_13_4318A_1 length=0.001 units=km
New Reactor.TRF_13_4318A_R phases=1 bus1=ET13_4318.4 R=15 X=0 basefreq=60
New Transformer.TRF_13_4379A phases=1 windings=3 buses=[MRT_585621TRF_13_4379A.1 ET13_4379.1.4 ET13_4379.4.2] conns=[Wye Wye Wye] kvs=[13.3367912182804 0.22 0.22] kvas=[15 15 15] %loadloss=1.766667 %noloadloss=0.433333
New Linecode.LC_MRT_TRF_13_4379A_1 nphases=1 basefreq=60 r1=15000 x1=0 units=km normamps=0
New Linecode.LC_MRT_TRF_13_4379A_2 nphases=2 basefreq=60 r1=15000 x1=0 units=km normamps=0
New Linecode.LC_MRT_TRF_13_4379A_3 nphases=3 basefreq=60 r1=15000 x1=0 units=km normamps=0
New Linecode.LC_MRT_TRF_13_4379A_4 nphases=4 basefreq=60 r1=15000 x1=0 units=km normamps=0
New Line.Resist_MTR_TRF_13_4379A phases=1 bus1=585621.1 bus2= MRT_585621TRF_13_4379A.1 linecode=LC_MRT_TRF_13_4379A_1 length=0.001 units=km
New Reactor.TRF_13_4379A_R phases=1 bus1=ET13_4379.4 R=15 X=0 basefreq=60
New Transformer.TRF_13_4381A phases=1 windings=3 buses=[MRT_38861TRF_13_4381A.1 ET13_4381.1.4 ET13_4381.4.2] conns=[Wye Wye Wye] kvs=[13.3367912182804 0.22 0.22] kvas=[10 10 10] %loadloss=1.95 %noloadloss=0.5
New Linecode.LC_MRT_TRF_13_4381A_1 nphases=1 basefreq=60 r1=15000 x1=0 units=km normamps=0
New Linecode.LC_MRT_TRF_13_4381A_2 nphases=2 basefreq=60 r1=15000 x1=0 units=km normamps=0
New Linecode.LC_MRT_TRF_13_4381A_3 nphases=3 basefreq=60 r1=15000 x1=0 units=km normamps=0
New Linecode.LC_MRT_TRF_13_4381A_4 nphases=4 basefreq=60 r1=15000 x1=0 units=km normamps=0
New Line.Resist_MTR_TRF_13_4381A phases=1 bus1=38861.1 bus2= MRT_38861TRF_13_4381A.1 linecode=LC_MRT_TRF_13_4381A_1 length=0.001 units=km
New Reactor.TRF_13_4381A_R phases=1 bus1=ET13_4381.4 R=15 X=0 basefreq=60
New Transformer.TRF_13_4406A phases=1 windings=3 buses=[MRT_121701TRF_13_4406A.1 ET13_4406.1.4 ET13_4406.4.2] conns=[Wye Wye Wye] kvs=[13.3367912182804 0.11 0.11] kvas=[15 15 15] %loadloss=1.766667 %noloadloss=0.433333
New Linecode.LC_MRT_TRF_13_4406A_1 nphases=1 basefreq=60 r1=15000 x1=0 units=km normamps=0
New Linecode.LC_MRT_TRF_13_4406A_2 nphases=2 basefreq=60 r1=15000 x1=0 units=km normamps=0
New Linecode.LC_MRT_TRF_13_4406A_3 nphases=3 basefreq=60 r1=15000 x1=0 units=km normamps=0
New Linecode.LC_MRT_TRF_13_4406A_4 nphases=4 basefreq=60 r1=15000 x1=0 units=km normamps=0
New Line.Resist_MTR_TRF_13_4406A phases=1 bus1=121701.1 bus2= MRT_121701TRF_13_4406A.1 linecode=LC_MRT_TRF_13_4406A_1 length=0.001 units=km
New Reactor.TRF_13_4406A_R phases=1 bus1=ET13_4406.4 R=15 X=0 basefreq=60
New Transformer.TRF_13_4578A phases=1 windings=3 buses=[MRT_609421TRF_13_4578A.3 ET13_4578.1.4 ET13_4578.4.2] conns=[Wye Wye Wye] kvs=[13.3367912182804 0.22 0.22] kvas=[25 25 25] %loadloss=1.56 %noloadloss=0.36
New Linecode.LC_MRT_TRF_13_4578A_1 nphases=1 basefreq=60 r1=15000 x1=0 units=km normamps=0
New Linecode.LC_MRT_TRF_13_4578A_2 nphases=2 basefreq=60 r1=15000 x1=0 units=km normamps=0
New Linecode.LC_MRT_TRF_13_4578A_3 nphases=3 basefreq=60 r1=15000 x1=0 units=km normamps=0
New Linecode.LC_MRT_TRF_13_4578A_4 nphases=4 basefreq=60 r1=15000 x1=0 units=km normamps=0
New Line.Resist_MTR_TRF_13_4578A phases=1 bus1=609421.3 bus2= MRT_609421TRF_13_4578A.3 linecode=LC_MRT_TRF_13_4578A_1 length=0.001 units=km
New Reactor.TRF_13_4578A_R phases=1 bus1=ET13_4578.4 R=15 X=0 basefreq=60
New Transformer.TRF_13_4591A phases=1 windings=3 buses=[MRT_20201TRF_13_4591A.1 ET13_4591.1.4 ET13_4591.4.2] conns=[Wye Wye Wye] kvs=[13.3367912182804 0.22 0.22] kvas=[15 15 15] %loadloss=1.766667 %noloadloss=0.433333
New Linecode.LC_MRT_TRF_13_4591A_1 nphases=1 basefreq=60 r1=15000 x1=0 units=km normamps=0
New Linecode.LC_MRT_TRF_13_4591A_2 nphases=2 basefreq=60 r1=15000 x1=0 units=km normamps=0
New Linecode.LC_MRT_TRF_13_4591A_3 nphases=3 basefreq=60 r1=15000 x1=0 units=km normamps=0
New Linecode.LC_MRT_TRF_13_4591A_4 nphases=4 basefreq=60 r1=15000 x1=0 units=km normamps=0
New Line.Resist_MTR_TRF_13_4591A phases=1 bus1=20201.1 bus2= MRT_20201TRF_13_4591A.1 linecode=LC_MRT_TRF_13_4591A_1 length=0.001 units=km
New Reactor.TRF_13_4591A_R phases=1 bus1=ET13_4591.4 R=15 X=0 basefreq=60
New Transformer.TRF_13_4714A phases=1 windings=3 buses=[MRT_720391TRF_13_4714A.3 ET13_4714.1.4 ET13_4714.4.2] conns=[Wye Wye Wye] kvs=[13.3367912182804 0.22 0.22] kvas=[25 25 25] %loadloss=1.56 %noloadloss=0.36
New Linecode.LC_MRT_TRF_13_4714A_1 nphases=1 basefreq=60 r1=15000 x1=0 units=km normamps=0
New Linecode.LC_MRT_TRF_13_4714A_2 nphases=2 basefreq=60 r1=15000 x1=0 units=km normamps=0
New Linecode.LC_MRT_TRF_13_4714A_3 nphases=3 basefreq=60 r1=15000 x1=0 units=km normamps=0
New Linecode.LC_MRT_TRF_13_4714A_4 nphases=4 basefreq=60 r1=15000 x1=0 units=km normamps=0
New Line.Resist_MTR_TRF_13_4714A phases=1 bus1=720391.3 bus2= MRT_720391TRF_13_4714A.3 linecode=LC_MRT_TRF_13_4714A_1 length=0.001 units=km
New Reactor.TRF_13_4714A_R phases=1 bus1=ET13_4714.4 R=15 X=0 basefreq=60
New Transformer.TRF_13_4737A phases=1 windings=3 buses=[MRT_6571TRF_13_4737A.3 ET13_4737.1.4 ET13_4737.4.2] conns=[Wye Wye Wye] kvs=[13.3367912182804 0.22 0.22] kvas=[10 10 10] %loadloss=1.95 %noloadloss=0.5
New Linecode.LC_MRT_TRF_13_4737A_1 nphases=1 basefreq=60 r1=15000 x1=0 units=km normamps=0
New Linecode.LC_MRT_TRF_13_4737A_2 nphases=2 basefreq=60 r1=15000 x1=0 units=km normamps=0
New Linecode.LC_MRT_TRF_13_4737A_3 nphases=3 basefreq=60 r1=15000 x1=0 units=km normamps=0
New Linecode.LC_MRT_TRF_13_4737A_4 nphases=4 basefreq=60 r1=15000 x1=0 units=km normamps=0
New Line.Resist_MTR_TRF_13_4737A phases=1 bus1=6571.3 bus2= MRT_6571TRF_13_4737A.3 linecode=LC_MRT_TRF_13_4737A_1 length=0.001 units=km
New Reactor.TRF_13_4737A_R phases=1 bus1=ET13_4737.4 R=15 X=0 basefreq=60
New Transformer.TRF_13_4861A phases=1 windings=3 buses=[MRT_730161TRF_13_4861A.2 ET13_4861.1.4 ET13_4861.4.2] conns=[Wye Wye Wye] kvs=[13.3367912182804 0.22 0.22] kvas=[10 10 10] %loadloss=1.95 %noloadloss=0.5
New Linecode.LC_MRT_TRF_13_4861A_1 nphases=1 basefreq=60 r1=15000 x1=0 units=km normamps=0
New Linecode.LC_MRT_TRF_13_4861A_2 nphases=2 basefreq=60 r1=15000 x1=0 units=km normamps=0
New Linecode.LC_MRT_TRF_13_4861A_3 nphases=3 basefreq=60 r1=15000 x1=0 units=km normamps=0
New Linecode.LC_MRT_TRF_13_4861A_4 nphases=4 basefreq=60 r1=15000 x1=0 units=km normamps=0
New Line.Resist_MTR_TRF_13_4861A phases=1 bus1=730161.2 bus2= MRT_730161TRF_13_4861A.2 linecode=LC_MRT_TRF_13_4861A_1 length=0.001 units=km
New Reactor.TRF_13_4861A_R phases=1 bus1=ET13_4861.4 R=15 X=0 basefreq=60
New Transformer.TRF_13_4939A phases=1 windings=3 buses=[MRT_34821TRF_13_4939A.1 ET13_4939.1.4 ET13_4939.4.2] conns=[Wye Wye Wye] kvs=[13.3367912182804 0.22 0.22] kvas=[10 10 10] %loadloss=1.95 %noloadloss=0.5
New Linecode.LC_MRT_TRF_13_4939A_1 nphases=1 basefreq=60 r1=15000 x1=0 units=km normamps=0
New Linecode.LC_MRT_TRF_13_4939A_2 nphases=2 basefreq=60 r1=15000 x1=0 units=km normamps=0
New Linecode.LC_MRT_TRF_13_4939A_3 nphases=3 basefreq=60 r1=15000 x1=0 units=km normamps=0
New Linecode.LC_MRT_TRF_13_4939A_4 nphases=4 basefreq=60 r1=15000 x1=0 units=km normamps=0
New Line.Resist_MTR_TRF_13_4939A phases=1 bus1=34821.1 bus2= MRT_34821TRF_13_4939A.1 linecode=LC_MRT_TRF_13_4939A_1 length=0.001 units=km
New Reactor.TRF_13_4939A_R phases=1 bus1=ET13_4939.4 R=15 X=0 basefreq=60
New Transformer.TRF_13_4985A phases=1 windings=3 buses=[MRT_722061TRF_13_4985A.2 ET13_4985.1.4 ET13_4985.4.2] conns=[Wye Wye Wye] kvs=[13.3367912182804 0.22 0.22] kvas=[10 10 10] %loadloss=1.95 %noloadloss=0.5
New Linecode.LC_MRT_TRF_13_4985A_1 nphases=1 basefreq=60 r1=15000 x1=0 units=km normamps=0
New Linecode.LC_MRT_TRF_13_4985A_2 nphases=2 basefreq=60 r1=15000 x1=0 units=km normamps=0
New Linecode.LC_MRT_TRF_13_4985A_3 nphases=3 basefreq=60 r1=15000 x1=0 units=km normamps=0
New Linecode.LC_MRT_TRF_13_4985A_4 nphases=4 basefreq=60 r1=15000 x1=0 units=km normamps=0
New Line.Resist_MTR_TRF_13_4985A phases=1 bus1=722061.2 bus2= MRT_722061TRF_13_4985A.2 linecode=LC_MRT_TRF_13_4985A_1 length=0.001 units=km
New Reactor.TRF_13_4985A_R phases=1 bus1=ET13_4985.4 R=15 X=0 basefreq=60
New Transformer.TRF_13_5125A phases=1 windings=3 buses=[MRT_34771TRF_13_5125A.2 ET13_5125.1.4 ET13_5125.4.2] conns=[Wye Wye Wye] kvs=[13.3367912182804 0.22 0.22] kvas=[10 10 10] %loadloss=1.95 %noloadloss=0.5
New Linecode.LC_MRT_TRF_13_5125A_1 nphases=1 basefreq=60 r1=15000 x1=0 units=km normamps=0
New Linecode.LC_MRT_TRF_13_5125A_2 nphases=2 basefreq=60 r1=15000 x1=0 units=km normamps=0
New Linecode.LC_MRT_TRF_13_5125A_3 nphases=3 basefreq=60 r1=15000 x1=0 units=km normamps=0
New Linecode.LC_MRT_TRF_13_5125A_4 nphases=4 basefreq=60 r1=15000 x1=0 units=km normamps=0
New Line.Resist_MTR_TRF_13_5125A phases=1 bus1=34771.2 bus2= MRT_34771TRF_13_5125A.2 linecode=LC_MRT_TRF_13_5125A_1 length=0.001 units=km
New Reactor.TRF_13_5125A_R phases=1 bus1=ET13_5125.4 R=15 X=0 basefreq=60
New Transformer.TRF_13_5418A phases=1 windings=3 buses=[MRT_303971TRF_13_5418A.1 ET13_5418.1.4 ET13_5418.4.2] conns=[Wye Wye Wye] kvs=[13.3367912182804 0.22 0.22] kvas=[5 5 5] %loadloss=2.1 %noloadloss=0.7
New Linecode.LC_MRT_TRF_13_5418A_1 nphases=1 basefreq=60 r1=15000 x1=0 units=km normamps=0
New Linecode.LC_MRT_TRF_13_5418A_2 nphases=2 basefreq=60 r1=15000 x1=0 units=km normamps=0
New Linecode.LC_MRT_TRF_13_5418A_3 nphases=3 basefreq=60 r1=15000 x1=0 units=km normamps=0
New Linecode.LC_MRT_TRF_13_5418A_4 nphases=4 basefreq=60 r1=15000 x1=0 units=km normamps=0
New Line.Resist_MTR_TRF_13_5418A phases=1 bus1=303971.1 bus2= MRT_303971TRF_13_5418A.1 linecode=LC_MRT_TRF_13_5418A_1 length=0.001 units=km
New Reactor.TRF_13_5418A_R phases=1 bus1=ET13_5418.4 R=15 X=0 basefreq=60
New Transformer.TRF_13_5551A phases=1 windings=3 buses=[MRT_750341TRF_13_5551A.1 ET13_5551.1.4 ET13_5551.4.2] conns=[Wye Wye Wye] kvs=[13.3367912182804 0.22 0.22] kvas=[15 15 15] %loadloss=1.766667 %noloadloss=0.433333
New Linecode.LC_MRT_TRF_13_5551A_1 nphases=1 basefreq=60 r1=15000 x1=0 units=km normamps=0
New Linecode.LC_MRT_TRF_13_5551A_2 nphases=2 basefreq=60 r1=15000 x1=0 units=km normamps=0
New Linecode.LC_MRT_TRF_13_5551A_3 nphases=3 basefreq=60 r1=15000 x1=0 units=km normamps=0
New Linecode.LC_MRT_TRF_13_5551A_4 nphases=4 basefreq=60 r1=15000 x1=0 units=km normamps=0
New Line.Resist_MTR_TRF_13_5551A phases=1 bus1=750341.1 bus2= MRT_750341TRF_13_5551A.1 linecode=LC_MRT_TRF_13_5551A_1 length=0.001 units=km
New Reactor.TRF_13_5551A_R phases=1 bus1=ET13_5551.4 R=15 X=0 basefreq=60
New Transformer.TRF_13_5637A phases=3 windings=2 buses=[708192.1.2.3 ET13_5637.1.2.3.4] conns=[Delta Wye] kvs=[23.1 0.38] kvas=[30 30] %loadloss=2.1 %noloadloss=0.533333
New Reactor.TRF_13_5637A_R phases=1 bus1=ET13_5637.4 R=15 X=0 basefreq=60
New Transformer.TRF_13_5663A phases=1 windings=3 buses=[MRT_765041TRF_13_5663A.2 ET13_5663.1.4 ET13_5663.4.2] conns=[Wye Wye Wye] kvs=[13.3367912182804 0.22 0.22] kvas=[10 10 10] %loadloss=1.95 %noloadloss=0.5
New Linecode.LC_MRT_TRF_13_5663A_1 nphases=1 basefreq=60 r1=15000 x1=0 units=km normamps=0
New Linecode.LC_MRT_TRF_13_5663A_2 nphases=2 basefreq=60 r1=15000 x1=0 units=km normamps=0
New Linecode.LC_MRT_TRF_13_5663A_3 nphases=3 basefreq=60 r1=15000 x1=0 units=km normamps=0
New Linecode.LC_MRT_TRF_13_5663A_4 nphases=4 basefreq=60 r1=15000 x1=0 units=km normamps=0
New Line.Resist_MTR_TRF_13_5663A phases=1 bus1=765041.2 bus2= MRT_765041TRF_13_5663A.2 linecode=LC_MRT_TRF_13_5663A_1 length=0.001 units=km
New Reactor.TRF_13_5663A_R phases=1 bus1=ET13_5663.4 R=15 X=0 basefreq=60
New Transformer.TRF_13_5758A phases=3 windings=2 buses=[789071.1.2.3 ET13_5758.1.2.3.4] conns=[Delta Wye] kvs=[23.1 0.38] kvas=[30 30] %loadloss=2.1 %noloadloss=0.533333
New Reactor.TRF_13_5758A_R phases=1 bus1=ET13_5758.4 R=15 X=0 basefreq=60
New Transformer.TRF_13_5887A phases=1 windings=3 buses=[MRT_772781TRF_13_5887A.3 ET13_5887.1.4 ET13_5887.4.2] conns=[Wye Wye Wye] kvs=[13.3367912182804 0.22 0.22] kvas=[10 10 10] %loadloss=1.95 %noloadloss=0.5
New Linecode.LC_MRT_TRF_13_5887A_1 nphases=1 basefreq=60 r1=15000 x1=0 units=km normamps=0
New Linecode.LC_MRT_TRF_13_5887A_2 nphases=2 basefreq=60 r1=15000 x1=0 units=km normamps=0
New Linecode.LC_MRT_TRF_13_5887A_3 nphases=3 basefreq=60 r1=15000 x1=0 units=km normamps=0
New Linecode.LC_MRT_TRF_13_5887A_4 nphases=4 basefreq=60 r1=15000 x1=0 units=km normamps=0
New Line.Resist_MTR_TRF_13_5887A phases=1 bus1=772781.3 bus2= MRT_772781TRF_13_5887A.3 linecode=LC_MRT_TRF_13_5887A_1 length=0.001 units=km
New Reactor.TRF_13_5887A_R phases=1 bus1=ET13_5887.4 R=15 X=0 basefreq=60
New Transformer.TRF_13_5888A phases=1 windings=3 buses=[MRT_772791TRF_13_5888A.1 ET13_5888.1.4 ET13_5888.4.2] conns=[Wye Wye Wye] kvs=[13.3367912182804 0.22 0.22] kvas=[15 15 15] %loadloss=1.766667 %noloadloss=0.433333
New Linecode.LC_MRT_TRF_13_5888A_1 nphases=1 basefreq=60 r1=15000 x1=0 units=km normamps=0
New Linecode.LC_MRT_TRF_13_5888A_2 nphases=2 basefreq=60 r1=15000 x1=0 units=km normamps=0
New Linecode.LC_MRT_TRF_13_5888A_3 nphases=3 basefreq=60 r1=15000 x1=0 units=km normamps=0
New Linecode.LC_MRT_TRF_13_5888A_4 nphases=4 basefreq=60 r1=15000 x1=0 units=km normamps=0
New Line.Resist_MTR_TRF_13_5888A phases=1 bus1=772791.1 bus2= MRT_772791TRF_13_5888A.1 linecode=LC_MRT_TRF_13_5888A_1 length=0.001 units=km
New Reactor.TRF_13_5888A_R phases=1 bus1=ET13_5888.4 R=15 X=0 basefreq=60
New Transformer.TRF_13_5963A phases=1 windings=3 buses=[MRT_139131TRF_13_5963A.1 ET13_5963.1.4 ET13_5963.4.2] conns=[Wye Wye Wye] kvs=[13.3367912182804 0.22 0.22] kvas=[10 10 10] %loadloss=1.95 %noloadloss=0.5
New Linecode.LC_MRT_TRF_13_5963A_1 nphases=1 basefreq=60 r1=15000 x1=0 units=km normamps=0
New Linecode.LC_MRT_TRF_13_5963A_2 nphases=2 basefreq=60 r1=15000 x1=0 units=km normamps=0
New Linecode.LC_MRT_TRF_13_5963A_3 nphases=3 basefreq=60 r1=15000 x1=0 units=km normamps=0
New Linecode.LC_MRT_TRF_13_5963A_4 nphases=4 basefreq=60 r1=15000 x1=0 units=km normamps=0
New Line.Resist_MTR_TRF_13_5963A phases=1 bus1=139131.1 bus2= MRT_139131TRF_13_5963A.1 linecode=LC_MRT_TRF_13_5963A_1 length=0.001 units=km
New Reactor.TRF_13_5963A_R phases=1 bus1=ET13_5963.4 R=15 X=0 basefreq=60
New Transformer.TRF_13_6023A phases=1 windings=3 buses=[MRT_22501TRF_13_6023A.3 ET13_6023.1.4 ET13_6023.4.2] conns=[Wye Wye Wye] kvs=[13.3367912182804 0.22 0.22] kvas=[10 10 10] %loadloss=1.95 %noloadloss=0.5
New Linecode.LC_MRT_TRF_13_6023A_1 nphases=1 basefreq=60 r1=15000 x1=0 units=km normamps=0
New Linecode.LC_MRT_TRF_13_6023A_2 nphases=2 basefreq=60 r1=15000 x1=0 units=km normamps=0
New Linecode.LC_MRT_TRF_13_6023A_3 nphases=3 basefreq=60 r1=15000 x1=0 units=km normamps=0
New Linecode.LC_MRT_TRF_13_6023A_4 nphases=4 basefreq=60 r1=15000 x1=0 units=km normamps=0
New Line.Resist_MTR_TRF_13_6023A phases=1 bus1=22501.3 bus2= MRT_22501TRF_13_6023A.3 linecode=LC_MRT_TRF_13_6023A_1 length=0.001 units=km
New Reactor.TRF_13_6023A_R phases=1 bus1=ET13_6023.4 R=15 X=0 basefreq=60
New Transformer.TRF_13_6077A phases=1 windings=3 buses=[MRT_793181TRF_13_6077A.2 ET13_6077.1.4 ET13_6077.4.2] conns=[Wye Wye Wye] kvs=[13.3367912182804 0.22 0.22] kvas=[15 15 15] %loadloss=1.766667 %noloadloss=0.433333
New Linecode.LC_MRT_TRF_13_6077A_1 nphases=1 basefreq=60 r1=15000 x1=0 units=km normamps=0
New Linecode.LC_MRT_TRF_13_6077A_2 nphases=2 basefreq=60 r1=15000 x1=0 units=km normamps=0
New Linecode.LC_MRT_TRF_13_6077A_3 nphases=3 basefreq=60 r1=15000 x1=0 units=km normamps=0
New Linecode.LC_MRT_TRF_13_6077A_4 nphases=4 basefreq=60 r1=15000 x1=0 units=km normamps=0
New Line.Resist_MTR_TRF_13_6077A phases=1 bus1=793181.2 bus2= MRT_793181TRF_13_6077A.2 linecode=LC_MRT_TRF_13_6077A_1 length=0.001 units=km
New Reactor.TRF_13_6077A_R phases=1 bus1=ET13_6077.4 R=15 X=0 basefreq=60
New Transformer.TRF_13_6209A phases=1 windings=3 buses=[MRT_802481TRF_13_6209A.3 ET13_6209.1.4 ET13_6209.4.2] conns=[Wye Wye Wye] kvs=[13.3367912182804 0.22 0.22] kvas=[10 10 10] %loadloss=1.95 %noloadloss=0.5
New Linecode.LC_MRT_TRF_13_6209A_1 nphases=1 basefreq=60 r1=15000 x1=0 units=km normamps=0
New Linecode.LC_MRT_TRF_13_6209A_2 nphases=2 basefreq=60 r1=15000 x1=0 units=km normamps=0
New Linecode.LC_MRT_TRF_13_6209A_3 nphases=3 basefreq=60 r1=15000 x1=0 units=km normamps=0
New Linecode.LC_MRT_TRF_13_6209A_4 nphases=4 basefreq=60 r1=15000 x1=0 units=km normamps=0
New Line.Resist_MTR_TRF_13_6209A phases=1 bus1=802481.3 bus2= MRT_802481TRF_13_6209A.3 linecode=LC_MRT_TRF_13_6209A_1 length=0.001 units=km
New Reactor.TRF_13_6209A_R phases=1 bus1=ET13_6209.4 R=15 X=0 basefreq=60
New Transformer.TRF_13_6262A phases=3 windings=2 buses=[805101.1.2.3 ET13_6262.1.2.3.4] conns=[Delta Wye] kvs=[23.1 0.38] kvas=[15 15] %loadloss=2.5 %noloadloss=0.633333
New Reactor.TRF_13_6262A_R phases=1 bus1=ET13_6262.4 R=15 X=0 basefreq=60
New Transformer.TRF_13_6299A phases=1 windings=3 buses=[MRT_808101TRF_13_6299A.3 ET13_6299.1.4 ET13_6299.4.2] conns=[Wye Wye Wye] kvs=[13.3367912182804 0.22 0.22] kvas=[25 25 25] %loadloss=1.56 %noloadloss=0.36
New Linecode.LC_MRT_TRF_13_6299A_1 nphases=1 basefreq=60 r1=15000 x1=0 units=km normamps=0
New Linecode.LC_MRT_TRF_13_6299A_2 nphases=2 basefreq=60 r1=15000 x1=0 units=km normamps=0
New Linecode.LC_MRT_TRF_13_6299A_3 nphases=3 basefreq=60 r1=15000 x1=0 units=km normamps=0
New Linecode.LC_MRT_TRF_13_6299A_4 nphases=4 basefreq=60 r1=15000 x1=0 units=km normamps=0
New Line.Resist_MTR_TRF_13_6299A phases=1 bus1=808101.3 bus2= MRT_808101TRF_13_6299A.3 linecode=LC_MRT_TRF_13_6299A_1 length=0.001 units=km
New Reactor.TRF_13_6299A_R phases=1 bus1=ET13_6299.4 R=15 X=0 basefreq=60
New Transformer.TRF_13_6342A phases=1 windings=3 buses=[MRT_810461TRF_13_6342A.2 ET13_6342.1.4 ET13_6342.4.2] conns=[Wye Wye Wye] kvs=[13.3367912182804 0.22 0.22] kvas=[25 25 25] %loadloss=1.56 %noloadloss=0.36
New Linecode.LC_MRT_TRF_13_6342A_1 nphases=1 basefreq=60 r1=15000 x1=0 units=km normamps=0
New Linecode.LC_MRT_TRF_13_6342A_2 nphases=2 basefreq=60 r1=15000 x1=0 units=km normamps=0
New Linecode.LC_MRT_TRF_13_6342A_3 nphases=3 basefreq=60 r1=15000 x1=0 units=km normamps=0
New Linecode.LC_MRT_TRF_13_6342A_4 nphases=4 basefreq=60 r1=15000 x1=0 units=km normamps=0
New Line.Resist_MTR_TRF_13_6342A phases=1 bus1=810461.2 bus2= MRT_810461TRF_13_6342A.2 linecode=LC_MRT_TRF_13_6342A_1 length=0.001 units=km
New Reactor.TRF_13_6342A_R phases=1 bus1=ET13_6342.4 R=15 X=0 basefreq=60
New Transformer.TRF_13_6345A phases=3 windings=2 buses=[811791.1.2.3 ET13_6345.1.2.3.4] conns=[Delta Wye] kvs=[23.1 0.38] kvas=[15 15] %loadloss=2.5 %noloadloss=0.633333
New Reactor.TRF_13_6345A_R phases=1 bus1=ET13_6345.4 R=15 X=0 basefreq=60
New Transformer.TRF_13_6383A phases=3 windings=2 buses=[324271.1.2.3 ET13_6383.1.2.3.4] conns=[Delta Wye] kvs=[23.1 0.38] kvas=[30 30] %loadloss=2.1 %noloadloss=0.533333
New Reactor.TRF_13_6383A_R phases=1 bus1=ET13_6383.4 R=15 X=0 basefreq=60
New Transformer.TRF_13_6421A phases=1 windings=3 buses=[MRT_816271TRF_13_6421A.3 ET13_6421.1.4 ET13_6421.4.2] conns=[Wye Wye Wye] kvs=[13.3367912182804 0.22 0.22] kvas=[10 10 10] %loadloss=1.95 %noloadloss=0.5
New Linecode.LC_MRT_TRF_13_6421A_1 nphases=1 basefreq=60 r1=15000 x1=0 units=km normamps=0
New Linecode.LC_MRT_TRF_13_6421A_2 nphases=2 basefreq=60 r1=15000 x1=0 units=km normamps=0
New Linecode.LC_MRT_TRF_13_6421A_3 nphases=3 basefreq=60 r1=15000 x1=0 units=km normamps=0
New Linecode.LC_MRT_TRF_13_6421A_4 nphases=4 basefreq=60 r1=15000 x1=0 units=km normamps=0
New Line.Resist_MTR_TRF_13_6421A phases=1 bus1=816271.3 bus2= MRT_816271TRF_13_6421A.3 linecode=LC_MRT_TRF_13_6421A_1 length=0.001 units=km
New Reactor.TRF_13_6421A_R phases=1 bus1=ET13_6421.4 R=15 X=0 basefreq=60
New Transformer.TRF_13_6459A phases=3 windings=2 buses=[816481.1.2.3 ET13_6459.1.2.3.4] conns=[Delta Wye] kvs=[23.1 0.38] kvas=[30 30] %loadloss=2.1 %noloadloss=0.533333
New Reactor.TRF_13_6459A_R phases=1 bus1=ET13_6459.4 R=15 X=0 basefreq=60
New Transformer.TRF_13_795A phases=1 windings=3 buses=[MRT_5801TRF_13_795A.2 ET13_795.1.4 ET13_795.4.2] conns=[Wye Wye Wye] kvs=[13.3367912182804 0.22 0.22] kvas=[10 10 10] %loadloss=1.95 %noloadloss=0.5
New Linecode.LC_MRT_TRF_13_795A_1 nphases=1 basefreq=60 r1=15000 x1=0 units=km normamps=0
New Linecode.LC_MRT_TRF_13_795A_2 nphases=2 basefreq=60 r1=15000 x1=0 units=km normamps=0
New Linecode.LC_MRT_TRF_13_795A_3 nphases=3 basefreq=60 r1=15000 x1=0 units=km normamps=0
New Linecode.LC_MRT_TRF_13_795A_4 nphases=4 basefreq=60 r1=15000 x1=0 units=km normamps=0
New Line.Resist_MTR_TRF_13_795A phases=1 bus1=5801.2 bus2= MRT_5801TRF_13_795A.2 linecode=LC_MRT_TRF_13_795A_1 length=0.001 units=km
New Reactor.TRF_13_795A_R phases=1 bus1=ET13_795.4 R=15 X=0 basefreq=60
New Transformer.TRF_13_799A phases=1 windings=3 buses=[MRT_22541TRF_13_799A.2 ET13_799.1.4 ET13_799.4.2] conns=[Wye Wye Wye] kvs=[13.3367912182804 0.22 0.22] kvas=[25 25 25] %loadloss=1.56 %noloadloss=0.36
New Linecode.LC_MRT_TRF_13_799A_1 nphases=1 basefreq=60 r1=15000 x1=0 units=km normamps=0
New Linecode.LC_MRT_TRF_13_799A_2 nphases=2 basefreq=60 r1=15000 x1=0 units=km normamps=0
New Linecode.LC_MRT_TRF_13_799A_3 nphases=3 basefreq=60 r1=15000 x1=0 units=km normamps=0
New Linecode.LC_MRT_TRF_13_799A_4 nphases=4 basefreq=60 r1=15000 x1=0 units=km normamps=0
New Line.Resist_MTR_TRF_13_799A phases=1 bus1=22541.2 bus2= MRT_22541TRF_13_799A.2 linecode=LC_MRT_TRF_13_799A_1 length=0.001 units=km
New Reactor.TRF_13_799A_R phases=1 bus1=ET13_799.4 R=15 X=0 basefreq=60
New Transformer.TRF_13_881A phases=1 windings=3 buses=[MRT_19291TRF_13_881A.1 ET13_881.1.4 ET13_881.4.2] conns=[Wye Wye Wye] kvs=[13.3367912182804 0.22 0.22] kvas=[10 10 10] %loadloss=1.95 %noloadloss=0.5
New Linecode.LC_MRT_TRF_13_881A_1 nphases=1 basefreq=60 r1=15000 x1=0 units=km normamps=0
New Linecode.LC_MRT_TRF_13_881A_2 nphases=2 basefreq=60 r1=15000 x1=0 units=km normamps=0
New Linecode.LC_MRT_TRF_13_881A_3 nphases=3 basefreq=60 r1=15000 x1=0 units=km normamps=0
New Linecode.LC_MRT_TRF_13_881A_4 nphases=4 basefreq=60 r1=15000 x1=0 units=km normamps=0
New Line.Resist_MTR_TRF_13_881A phases=1 bus1=19291.1 bus2= MRT_19291TRF_13_881A.1 linecode=LC_MRT_TRF_13_881A_1 length=0.001 units=km
New Reactor.TRF_13_881A_R phases=1 bus1=ET13_881.4 R=15 X=0 basefreq=60
New Transformer.TRF_13_944A phases=1 windings=3 buses=[MRT_22431TRF_13_944A.1 ET13_944.1.4 ET13_944.4.2] conns=[Wye Wye Wye] kvs=[13.3367912182804 0.22 0.22] kvas=[25 25 25] %loadloss=1.56 %noloadloss=0.36
New Linecode.LC_MRT_TRF_13_944A_1 nphases=1 basefreq=60 r1=15000 x1=0 units=km normamps=0
New Linecode.LC_MRT_TRF_13_944A_2 nphases=2 basefreq=60 r1=15000 x1=0 units=km normamps=0
New Linecode.LC_MRT_TRF_13_944A_3 nphases=3 basefreq=60 r1=15000 x1=0 units=km normamps=0
New Linecode.LC_MRT_TRF_13_944A_4 nphases=4 basefreq=60 r1=15000 x1=0 units=km normamps=0
New Line.Resist_MTR_TRF_13_944A phases=1 bus1=22431.1 bus2= MRT_22431TRF_13_944A.1 linecode=LC_MRT_TRF_13_944A_1 length=0.001 units=km
New Reactor.TRF_13_944A_R phases=1 bus1=ET13_944.4 R=15 X=0 basefreq=60
New Transformer.TRF_13_945A phases=1 windings=3 buses=[MRT_138181TRF_13_945A.1 ET13_945.1.4 ET13_945.4.2] conns=[Wye Wye Wye] kvs=[13.3367912182804 0.22 0.22] kvas=[15 15 15] %loadloss=1.766667 %noloadloss=0.433333
New Linecode.LC_MRT_TRF_13_945A_1 nphases=1 basefreq=60 r1=15000 x1=0 units=km normamps=0
New Linecode.LC_MRT_TRF_13_945A_2 nphases=2 basefreq=60 r1=15000 x1=0 units=km normamps=0
New Linecode.LC_MRT_TRF_13_945A_3 nphases=3 basefreq=60 r1=15000 x1=0 units=km normamps=0
New Linecode.LC_MRT_TRF_13_945A_4 nphases=4 basefreq=60 r1=15000 x1=0 units=km normamps=0
New Line.Resist_MTR_TRF_13_945A phases=1 bus1=138181.1 bus2= MRT_138181TRF_13_945A.1 linecode=LC_MRT_TRF_13_945A_1 length=0.001 units=km
New Reactor.TRF_13_945A_R phases=1 bus1=ET13_945.4 R=15 X=0 basefreq=60
New Transformer.TRF_13_946A phases=1 windings=3 buses=[MRT_36651TRF_13_946A.1 ET13_946.1.4 ET13_946.4.2] conns=[Wye Wye Wye] kvs=[13.3367912182804 0.22 0.22] kvas=[10 10 10] %loadloss=1.95 %noloadloss=0.5
New Linecode.LC_MRT_TRF_13_946A_1 nphases=1 basefreq=60 r1=15000 x1=0 units=km normamps=0
New Linecode.LC_MRT_TRF_13_946A_2 nphases=2 basefreq=60 r1=15000 x1=0 units=km normamps=0
New Linecode.LC_MRT_TRF_13_946A_3 nphases=3 basefreq=60 r1=15000 x1=0 units=km normamps=0
New Linecode.LC_MRT_TRF_13_946A_4 nphases=4 basefreq=60 r1=15000 x1=0 units=km normamps=0
New Line.Resist_MTR_TRF_13_946A phases=1 bus1=36651.1 bus2= MRT_36651TRF_13_946A.1 linecode=LC_MRT_TRF_13_946A_1 length=0.001 units=km
New Reactor.TRF_13_946A_R phases=1 bus1=ET13_946.4 R=15 X=0 basefreq=60
New Transformer.TRF_13_947A phases=1 windings=3 buses=[MRT_34171TRF_13_947A.2 ET13_947.1.4 ET13_947.4.2] conns=[Wye Wye Wye] kvs=[13.3367912182804 0.22 0.22] kvas=[10 10 10] %loadloss=1.95 %noloadloss=0.5
New Linecode.LC_MRT_TRF_13_947A_1 nphases=1 basefreq=60 r1=15000 x1=0 units=km normamps=0
New Linecode.LC_MRT_TRF_13_947A_2 nphases=2 basefreq=60 r1=15000 x1=0 units=km normamps=0
New Linecode.LC_MRT_TRF_13_947A_3 nphases=3 basefreq=60 r1=15000 x1=0 units=km normamps=0
New Linecode.LC_MRT_TRF_13_947A_4 nphases=4 basefreq=60 r1=15000 x1=0 units=km normamps=0
New Line.Resist_MTR_TRF_13_947A phases=1 bus1=34171.2 bus2= MRT_34171TRF_13_947A.2 linecode=LC_MRT_TRF_13_947A_1 length=0.001 units=km
New Reactor.TRF_13_947A_R phases=1 bus1=ET13_947.4 R=15 X=0 basefreq=60
New Transformer.TRF_13_948A phases=1 windings=3 buses=[MRT_35841TRF_13_948A.1 ET13_948.1.4 ET13_948.4.2] conns=[Wye Wye Wye] kvs=[13.3367912182804 0.22 0.22] kvas=[10 10 10] %loadloss=1.95 %noloadloss=0.5
New Linecode.LC_MRT_TRF_13_948A_1 nphases=1 basefreq=60 r1=15000 x1=0 units=km normamps=0
New Linecode.LC_MRT_TRF_13_948A_2 nphases=2 basefreq=60 r1=15000 x1=0 units=km normamps=0
New Linecode.LC_MRT_TRF_13_948A_3 nphases=3 basefreq=60 r1=15000 x1=0 units=km normamps=0
New Linecode.LC_MRT_TRF_13_948A_4 nphases=4 basefreq=60 r1=15000 x1=0 units=km normamps=0
New Line.Resist_MTR_TRF_13_948A phases=1 bus1=35841.1 bus2= MRT_35841TRF_13_948A.1 linecode=LC_MRT_TRF_13_948A_1 length=0.001 units=km
New Reactor.TRF_13_948A_R phases=1 bus1=ET13_948.4 R=15 X=0 basefreq=60
New Transformer.TRF_13_949A phases=1 windings=3 buses=[MRT_34871TRF_13_949A.1 ET13_949.1.4 ET13_949.4.2] conns=[Wye Wye Wye] kvs=[13.3367912182804 0.22 0.22] kvas=[15 15 15] %loadloss=1.766667 %noloadloss=0.433333
New Linecode.LC_MRT_TRF_13_949A_1 nphases=1 basefreq=60 r1=15000 x1=0 units=km normamps=0
New Linecode.LC_MRT_TRF_13_949A_2 nphases=2 basefreq=60 r1=15000 x1=0 units=km normamps=0
New Linecode.LC_MRT_TRF_13_949A_3 nphases=3 basefreq=60 r1=15000 x1=0 units=km normamps=0
New Linecode.LC_MRT_TRF_13_949A_4 nphases=4 basefreq=60 r1=15000 x1=0 units=km normamps=0
New Line.Resist_MTR_TRF_13_949A phases=1 bus1=34871.1 bus2= MRT_34871TRF_13_949A.1 linecode=LC_MRT_TRF_13_949A_1 length=0.001 units=km
New Reactor.TRF_13_949A_R phases=1 bus1=ET13_949.4 R=15 X=0 basefreq=60
New Transformer.TRF_13_950A phases=1 windings=3 buses=[MRT_35011TRF_13_950A.1 ET13_950.1.4 ET13_950.4.2] conns=[Wye Wye Wye] kvs=[13.3367912182804 0.22 0.22] kvas=[15 15 15] %loadloss=1.766667 %noloadloss=0.433333
New Linecode.LC_MRT_TRF_13_950A_1 nphases=1 basefreq=60 r1=15000 x1=0 units=km normamps=0
New Linecode.LC_MRT_TRF_13_950A_2 nphases=2 basefreq=60 r1=15000 x1=0 units=km normamps=0
New Linecode.LC_MRT_TRF_13_950A_3 nphases=3 basefreq=60 r1=15000 x1=0 units=km normamps=0
New Linecode.LC_MRT_TRF_13_950A_4 nphases=4 basefreq=60 r1=15000 x1=0 units=km normamps=0
New Line.Resist_MTR_TRF_13_950A phases=1 bus1=35011.1 bus2= MRT_35011TRF_13_950A.1 linecode=LC_MRT_TRF_13_950A_1 length=0.001 units=km
New Reactor.TRF_13_950A_R phases=1 bus1=ET13_950.4 R=15 X=0 basefreq=60
New Transformer.TRF_13_952A phases=1 windings=3 buses=[MRT_39391TRF_13_952A.1 ET13_952.1.4 ET13_952.4.2] conns=[Wye Wye Wye] kvs=[13.3367912182804 0.22 0.22] kvas=[10 10 10] %loadloss=1.95 %noloadloss=0.5
New Linecode.LC_MRT_TRF_13_952A_1 nphases=1 basefreq=60 r1=15000 x1=0 units=km normamps=0
New Linecode.LC_MRT_TRF_13_952A_2 nphases=2 basefreq=60 r1=15000 x1=0 units=km normamps=0
New Linecode.LC_MRT_TRF_13_952A_3 nphases=3 basefreq=60 r1=15000 x1=0 units=km normamps=0
...