examples/feeders/9718_9718_1/008_segmentoBT.dss
New Line.SBT_23556 phases=3 bus1=ET13_1372.1.2.4 bus2=BT4821.1.2.4 linecode=44_3 length=0.06684 units=km
New Line.SBT_23557 phases=3 bus1=BT4841.1.2.4 bus2=BT4851.1.2.4 linecode=44_3 length=0.08262 units=km
New Line.SBT_8843 phases=3 bus1=BT4821.1.2.4 bus2=BT4831.1.2.4 linecode=44_3 length=0.06 units=km
New Line.SBT_8844 phases=3 bus1=BT4831.1.2.4 bus2=BT4841.1.2.4 linecode=44_3 length=0.0486 units=km
New Line.SBT_8846 phases=3 bus1=BT19321.1.2.4 bus2=BT19331.1.2.4 linecode=44_3 length=0.10304 units=km
New Line.SBT_23558 phases=3 bus1=BT652551.1.2.4 bus2=BT19321.1.2.4 linecode=44_3 length=0.06607 units=km
New Line.SBT_23534 phases=3 bus1=BT19331.1.2.4 bus2=BT19341.1.2.4 linecode=44_3 length=0.07244 units=km
New Line.SBT_26819 phases=3 bus1=BT621921.1.2.4 bus2=BT621931.1.2.4 linecode=59_3 length=0.08349 units=km
New Line.SBT_14678 phases=3 bus1=ET13_1373.1.2.4 bus2=BT621911.1.2.4 linecode=59_3 length=0.06174 units=km
New Line.SBT_14679 phases=3 bus1=BT621911.1.2.4 bus2=BT621921.1.2.4 linecode=59_3 length=0.0712 units=km
New Line.SBT_14680 phases=3 bus1=BT621931.1.2.4 bus2=BT649391.1.2.4 linecode=59_3 length=0.08945 units=km
New Line.SBT_14687 phases=3 bus1=ET13_1373.1.2.4 bus2=BT652551.1.2.4 linecode=44_3 length=0.02608 units=km
New Line.SBT_18063 phases=3 bus1=BT6601.1.2.4 bus2=BT6592.1.2.4 linecode=44_3 length=0.06665 units=km
New Line.SBT_23535 phases=3 bus1=ET13_1374.1.2.4 bus2=BT6601.1.2.4 linecode=44_3 length=0.08141 units=km
New Line.SBT_23543 phases=3 bus1=BT6601.1.2.4 bus2=BT6611.1.2.4 linecode=44_3 length=0.11007 units=km
New Line.SBT_23544 phases=3 bus1=BT6611.1.2.4 bus2=BT6621.1.2.4 linecode=44_3 length=0.07906 units=km
New Line.SBT_22628 phases=2 bus1=BT336551.2.4 bus2=BT336561.2.4 linecode=62_2 length=0.12554 units=km
New Line.SBT_22629 phases=2 bus1=BT336551.1.4 bus2=BT6631.1.4 linecode=60_2 length=0.16925 units=km
New Line.SBT_22636 phases=2 bus1=BT6631.1.4 bus2=BT6641.1.4 linecode=60_2 length=0.12216 units=km
New Line.SBT_8818 phases=3 bus1=ET13_1374.1.2.4 bus2=BT6661.1.2.4 linecode=96_3 length=0.06301 units=km
New Line.SBT_8819 phases=2 bus1=ET13_1374.1.4 bus2=BT6671.1.4 linecode=60_2 length=0.10302 units=km
New Line.SBT_8820 phases=2 bus1=BT6671.1.4 bus2=BT6681.1.4 linecode=60_2 length=0.08021 units=km
New Line.SBT_7221 phases=3 bus1=BT6621.1.2.4 bus2=BT336551.1.2.4 linecode=44_3 length=0.03324 units=km
New Line.SBT_7222 phases=2 bus1=BT336561.2.4 bus2=BT340291.2.4 linecode=62_2 length=0.13195 units=km
New Line.SBT_5370 phases=3 bus1=ET13_1730.1.2.4 bus2=BT5711.1.2.4 linecode=59_3 length=0.08559 units=km
New Line.SBT_5371 phases=3 bus1=ET13_1730.1.2.4 bus2=BT5751.1.2.4 linecode=59_3 length=0.13721 units=km
New Line.SBT_5917 phases=3 bus1=BT5711.1.2.4 bus2=BT5721.1.2.4 linecode=59_3 length=0.14686 units=km
New Line.SBT_6036 phases=3 bus1=BT5761.1.2.4 bus2=BT5771.1.2.4 linecode=44_3 length=0.09467 units=km
New Line.SBT_6231 phases=3 bus1=BT5751.1.2.4 bus2=BT5761.1.2.4 linecode=44_3 length=0.05334 units=km
New Line.SBT_22056 phases=3 bus1=BT5751.1.2.4 bus2=BT5731.1.2.4 linecode=59_3 length=0.07072 units=km
New Line.SBT_7283 phases=2 bus1=ET13_2236.1.4 bus2=BT302301.1.4 linecode=62_2 length=0.10846 units=km
New Line.SBT_6673 phases=2 bus1=BT366291.2.4 bus2=BT366281.2.4 linecode=62_2 length=0.06093 units=km
New Line.SBT_18296 phases=2 bus1=ET13_2538.2.4 bus2=BT370991.2.4 linecode=62_2 length=0.11473 units=km
New Line.SBT_22307 phases=2 bus1=ET13_2538.2.4 bus2=BT366291.2.4 linecode=62_2 length=0.07892 units=km
New Line.SBT_22165 phases=2 bus1=ET13_2646.1.4 bus2=BT464091.1.4 linecode=60_2 length=0.08053 units=km
New Line.SBT_22166 phases=2 bus1=BT464091.1.4 bus2=BT464101.1.4 linecode=60_2 length=0.06357 units=km
New Line.SBT_6419 phases=2 bus1=ET13_2646.1.4 bus2=BT464071.1.4 linecode=62_2 length=0.06168 units=km
New Line.SBT_6420 phases=2 bus1=ET13_2646.2.4 bus2=BT464081.2.4 linecode=60_2 length=0.04569 units=km
New Line.SBT_6421 phases=2 bus1=BT464071.1.4 bus2=BT464061.1.4 linecode=62_2 length=0.05554 units=km
New Line.SBT_6422 phases=2 bus1=BT464101.1.4 bus2=BT464111.1.4 linecode=60_2 length=0.10827 units=km
New Line.SBT_6435 phases=2 bus1=BT464111.1.4 bus2=BT464121.1.4 linecode=60_2 length=0.09633 units=km
New Line.SBT_27739 phases=2 bus1=ET13_3152.1.4 bus2=BT598631.1.4 linecode=60_2 length=0.02484 units=km
New Line.SBT_26160 phases=2 bus1=BT625101.1.4 bus2=BT625111.1.4 linecode=62_2 length=0.12406 units=km
New Line.SBT_26161 phases=2 bus1=BT625121.1.4 bus2=BT625131.1.4 linecode=62_2 length=0.11389 units=km
New Line.SBT_26065 phases=2 bus1=ET13_3202.1.4 bus2=BT625081.1.4 linecode=62_2 length=0.10555 units=km
New Line.SBT_13314 phases=2 bus1=ET13_3202.2.4 bus2=BT750381.2.4 linecode=62_2 length=0.07218 units=km
New Line.SBT_13485 phases=2 bus1=BT625081.1.4 bus2=BT625101.1.4 linecode=62_2 length=0.05608 units=km
New Line.SBT_13486 phases=2 bus1=BT625111.1.4 bus2=BT625121.1.4 linecode=62_2 length=0.07052 units=km
...