examples/feeders/9718_9718_1/9718_9718_1_Power_seq_kVA.txt

SYMMETRICAL COMPONENT POWERS BY CIRCUIT ELEMENT (first 3 phases)                                     Excess Power

Element                                     Term    P1(kW)   Q1(kvar)       P2         Q2      P0      Q0       P_Norm      Q_Norm     P_Emerg    Q_Emerg

"Vsource.SOURCE"                             1    -1356.3     -394.6        0.0        0.0     0.0     0.0
"Vsource.SOURCE"                             2        0.0        0.0        0.0        0.0     0.0     0.0
"Line.13CF_1382"                             1        0.0        0.0        0.0        0.0     0.0     0.0        0.0        0.0        0.0        0.0
"Line.13CF_1382"                             2        0.0        0.0        0.0        0.0     0.0     0.0
"Line.13CF_1527"                             1        0.0        0.0        0.0        0.0     0.0     0.0        0.0        0.0        0.0        0.0
"Line.13CF_1527"                             2        0.0        0.0        0.0        0.0     0.0     0.0
"Line.13CF_1678"                             1        0.0        0.0        0.0        0.0     0.0     0.0        0.0        0.0        0.0        0.0
"Line.13CF_1678"                             2        0.0        0.0        0.0        0.0     0.0     0.0
"Line.13CF_1706"                             1        0.0        0.0        0.0        0.0     0.0     0.0        0.0        0.0        0.0        0.0
"Line.13CF_1706"                             2        0.0        0.0        0.0        0.0     0.0     0.0
"Line.13CF_1757"                             1        0.1       -0.1        0.0       -0.0    -0.0    -0.0        0.0        0.0        0.0        0.0
"Line.13CF_1757"                             2       -0.1        0.1       -0.0        0.0     0.0     0.0
"Line.13CF_1917"                             1        0.0        0.0        0.0        0.0     0.0     0.0        0.0        0.0        0.0        0.0
"Line.13CF_1917"                             2        0.0        0.0        0.0        0.0     0.0     0.0
"Line.13CF_364"                              1        0.0        0.0        0.0        0.0     0.0     0.0        0.0        0.0        0.0        0.0
"Line.13CF_364"                              2        0.0        0.0        0.0        0.0     0.0     0.0
"Line.13CF_365"                              1        0.0        0.0        0.0        0.0     0.0     0.0        0.0        0.0        0.0        0.0
"Line.13CF_365"                              2        0.0        0.0        0.0        0.0     0.0     0.0
"Line.13CS_1197"                             1        0.4       -1.9       -0.0       -0.0     0.0     0.0        0.0        0.0        0.0        0.0
"Line.13CS_1197"                             2       -0.4        1.9        0.0        0.0    -0.0    -0.0
"Line.13FR_367"                              1        0.0        0.0        0.0        0.0     0.0     0.0        0.0        0.0        0.0        0.0
"Line.13FR_367"                              2        0.0        0.0        0.0        0.0     0.0     0.0
"Line.13FR_761"                              1        0.0        0.0        0.0        0.0     0.0     0.0        0.0        0.0        0.0        0.0
"Line.13FR_761"                              2        0.0        0.0        0.0        0.0     0.0     0.0
"Line.19BP_370"                              1       75.3       20.2       -0.0       -0.0    -0.0    -0.0        0.0        0.0        0.0        0.0
"Line.19BP_370"                              2      -75.3      -20.2        0.0        0.0     0.0     0.0
"Line.19CF_1034"                             1        0.0        0.0        0.0        0.0     0.0     0.0        0.0        0.0        0.0        0.0
"Line.19CF_1034"                             2        0.0        0.0        0.0        0.0     0.0     0.0
"Line.19CF_1067"                             1        0.0        0.0        0.0        0.0     0.0     0.0        0.0        0.0        0.0        0.0
"Line.19CF_1067"                             2        0.0        0.0        0.0        0.0     0.0     0.0
"Line.19CF_1069"                             1        0.0        0.0        0.0        0.0     0.0     0.0        0.0        0.0        0.0        0.0
"Line.19CF_1069"                             2        0.0        0.0        0.0        0.0     0.0     0.0
"Line.19CF_1070"                             1        0.0        0.0        0.0        0.0     0.0     0.0        0.0        0.0        0.0        0.0
"Line.19CF_1070"                             2        0.0        0.0        0.0        0.0     0.0     0.0
"Line.19CF_1084"                             1        0.0        0.0        0.0        0.0     0.0     0.0        0.0        0.0        0.0        0.0
"Line.19CF_1084"                             2        0.0        0.0        0.0        0.0     0.0     0.0
"Line.19CF_1098"                             1        0.0        0.0        0.0        0.0     0.0     0.0        0.0        0.0        0.0        0.0
"Line.19CF_1098"                             2        0.0        0.0        0.0        0.0     0.0     0.0
"Line.19CF_1123"                             1       46.2       17.0        0.0        0.0    -0.0    -0.0        0.0        0.0        0.0        0.0
"Line.19CF_1123"                             2      -46.2      -17.0       -0.0       -0.0     0.0     0.0
"Line.19CF_1208"                             1        0.0        0.0        0.0        0.0     0.0     0.0        0.0        0.0        0.0        0.0
"Line.19CF_1208"                             2        0.0        0.0        0.0        0.0     0.0     0.0
"Line.19CF_1275"                             1        3.4        1.3        0.0       -0.0     0.0    -0.0        0.0        0.0        0.0        0.0
"Line.19CF_1275"                             2       -3.4       -1.3       -0.0        0.0    -0.0     0.0
"Line.19CF_1312"                             1        0.0        0.0        0.0        0.0     0.0     0.0        0.0        0.0        0.0        0.0
"Line.19CF_1312"                             2        0.0        0.0        0.0        0.0     0.0     0.0
"Line.19CF_1335"                             1        0.0        0.0        0.0        0.0     0.0     0.0        0.0        0.0        0.0        0.0
"Line.19CF_1335"                             2        0.0        0.0        0.0        0.0     0.0     0.0
"Line.19CF_1353"                             1        0.0        0.0        0.0        0.0     0.0     0.0        0.0        0.0        0.0        0.0
"Line.19CF_1353"                             2        0.0        0.0        0.0        0.0     0.0     0.0
"Line.19CF_1394"                             1        0.0        0.0        0.0        0.0     0.0     0.0        0.0        0.0        0.0        0.0
"Line.19CF_1394"                             2        0.0        0.0        0.0        0.0     0.0     0.0
"Line.19CF_1413"                             1        1.7        0.7        0.0        0.0    -0.0    -0.0        0.0        0.0        0.0        0.0
"Line.19CF_1413"                             2       -1.7       -0.7       -0.0       -0.0    -0.0     0.0
"Line.19CF_1522"                             1        1.7        0.2        0.0        0.0    -0.0    -0.0        0.0        0.0        0.0        0.0
"Line.19CF_1522"                             2       -1.7       -0.2       -0.0       -0.0     0.0     0.0
"Line.19CF_1650"                             1        7.2        2.3        0.0       -0.0    -0.0     0.0        0.0        0.0        0.0        0.0
"Line.19CF_1650"                             2       -7.2       -2.3       -0.0        0.0     0.0    -0.0
"Line.19CF_1703"                             1        0.0        0.0        0.0        0.0     0.0     0.0        0.0        0.0        0.0        0.0
"Line.19CF_1703"                             2        0.0        0.0        0.0        0.0     0.0     0.0
"Line.19CF_1704"                             1        0.0        0.0        0.0        0.0     0.0     0.0        0.0        0.0        0.0        0.0
"Line.19CF_1704"                             2        0.0        0.0        0.0        0.0     0.0     0.0
"Line.19CF_1825"                             1       10.2        3.6        0.0        0.0    -0.0    -0.0        0.0        0.0        0.0        0.0
"Line.19CF_1825"                             2      -10.2       -3.6       -0.0       -0.0     0.0     0.0
"Line.19CF_1847"                             1        1.4        0.5        0.0        0.0     0.0    -0.0        0.0        0.0        0.0        0.0
"Line.19CF_1847"                             2       -1.4       -0.5       -0.0       -0.0    -0.0     0.0
"Line.19CF_1848"                             1        0.0        0.0        0.0        0.0     0.0     0.0        0.0        0.0        0.0        0.0
"Line.19CF_1848"                             2        0.0        0.0        0.0        0.0     0.0     0.0
"Line.19CF_1907"                             1       30.4       12.7        0.0        0.0    -0.0    -0.0        0.0        0.0        0.0        0.0
"Line.19CF_1907"                             2      -30.4      -12.7       -0.0       -0.0     0.0     0.0
"Line.19CF_221"                              1        0.0        0.0        0.0        0.0     0.0     0.0        0.0        0.0        0.0        0.0
"Line.19CF_221"                              2        0.0        0.0        0.0        0.0     0.0     0.0
"Line.19CF_251"                              1        0.0        0.0        0.0        0.0     0.0     0.0        0.0        0.0        0.0        0.0
"Line.19CF_251"                              2        0.0        0.0        0.0        0.0     0.0     0.0
"Line.19CF_285"                              1        0.0        0.0        0.0        0.0     0.0     0.0        0.0        0.0        0.0        0.0
"Line.19CF_285"                              2        0.0        0.0        0.0        0.0     0.0     0.0
"Line.19CF_286"                              1        4.0        0.3        0.0        0.0     0.0    -0.0        0.0        0.0        0.0        0.0
"Line.19CF_286"                              2       -4.0       -0.3       -0.0       -0.0    -0.0     0.0
"Line.19CF_371"                              1        2.4       -0.1        0.0       -0.0     0.0     0.0        0.0        0.0        0.0        0.0
"Line.19CF_371"                              2       -2.4        0.1       -0.0        0.0    -0.0    -0.0
"Line.19CF_800"                              1        0.0        0.0        0.0        0.0     0.0     0.0        0.0        0.0        0.0        0.0
"Line.19CF_800"                              2        0.0        0.0        0.0        0.0     0.0     0.0
"Line.19CF_818"                              1        0.0        0.0        0.0        0.0     0.0     0.0        0.0        0.0        0.0        0.0
"Line.19CF_818"                              2        0.0        0.0        0.0        0.0     0.0     0.0
"Line.19CF_855"                              1        0.0        0.0        0.0        0.0     0.0     0.0        0.0        0.0        0.0        0.0
"Line.19CF_855"                              2        0.0        0.0        0.0        0.0     0.0     0.0
"Line.19CF_898"                              1        0.0        0.0        0.0        0.0     0.0     0.0        0.0        0.0        0.0        0.0
"Line.19CF_898"                              2        0.0        0.0        0.0        0.0     0.0     0.0
"Line.19CF_934"                              1        0.0        0.0        0.0        0.0     0.0     0.0        0.0        0.0        0.0        0.0
"Line.19CF_934"                              2        0.0        0.0        0.0        0.0     0.0     0.0
"Line.19CF_949"                              1        6.7        2.1       -0.0        0.0     0.0    -0.0        0.0        0.0        0.0        0.0
"Line.19CF_949"                              2       -6.7       -2.1        0.0       -0.0    -0.0     0.0
"Line.19CF_970"                              1       14.4        5.4        0.0        0.0    -0.0    -0.0        0.0        0.0        0.0        0.0
"Line.19CF_970"                              2      -14.4       -5.4       -0.0       -0.0     0.0     0.0
"Line.19CF_976"                              1        5.6        1.4        0.0       -0.0    -0.0    -0.0        0.0        0.0        0.0        0.0
"Line.19CF_976"                              2       -5.6       -1.4       -0.0        0.0     0.0     0.0
"Line.19CF_9999"                             1       18.9        3.6       -0.0       -0.0    -0.0    -0.0        0.0        0.0        0.0        0.0
"Line.19CF_9999"                             2      -18.9       -3.6        0.0        0.0     0.0     0.0
"Line.19CS_1250"                             1      136.0       31.6       -0.1       -0.0    -0.0    -0.0        0.0        0.0        0.0        0.0
"Line.19CS_1250"                             2     -136.0      -31.6        0.1        0.0     0.0     0.0
"Line.19CS_288"                              1      189.9       40.0       -0.1       -0.0    -0.0    -0.0        0.0        0.0        0.0        0.0
"Line.19CS_288"                              2     -189.9      -40.0        0.1        0.0     0.0     0.0
"Line.19CS_32"                               1       69.7       21.1       -0.0       -0.0     0.0    -0.0        0.0        0.0        0.0        0.0
"Line.19CS_32"                               2      -69.7      -21.1        0.0        0.0    -0.0     0.0
"Line.19CS_850"                              1      477.7      147.6       -0.0       -0.0    -0.0     0.0        0.0        0.0        0.0        0.0
"Line.19CS_850"                              2     -477.7     -147.6        0.0        0.0     0.0    -0.0
"Line.19FR_1709"                             1       23.8        8.2       -0.0        0.0    -0.0    -0.0        0.0        0.0        0.0        0.0
"Line.19FR_1709"                             2      -23.8       -8.2        0.0       -0.0     0.0     0.0
"Line.19FR_250"                              1        0.0        0.0        0.0        0.0     0.0     0.0        0.0        0.0        0.0        0.0
"Line.19FR_250"                              2        0.0        0.0        0.0        0.0     0.0     0.0
"Line.19FR_363"                              1        0.0        0.0        0.0        0.0     0.0     0.0        0.0        0.0        0.0        0.0
"Line.19FR_363"                              2        0.0        0.0        0.0        0.0     0.0     0.0
"Line.19FR_801"                              1      136.0       31.6       -0.1       -0.0    -0.0    -0.0        0.0        0.0        0.0        0.0
"Line.19FR_801"                              2     -136.0      -31.6        0.1        0.0     0.0     0.0
"Line.19FR_861"                              1       18.5        3.9       -0.0       -0.0    -0.0    -0.0        0.0        0.0        0.0        0.0
"Line.19FR_861"                              2      -18.5       -3.9        0.0        0.0     0.0     0.0
"Line.21CF_1050"                             1        1.4        0.2       -0.0       -0.0     0.0    -0.0        0.0        0.0        0.0        0.0
"Line.21CF_1050"                             2       -1.4       -0.2        0.0        0.0    -0.0     0.0
"Line.21CF_1053"                             1        0.8        0.3        0.0        0.0     0.0    -0.0        0.0        0.0        0.0        0.0
"Line.21CF_1053"                             2       -0.8       -0.3       -0.0       -0.0    -0.0     0.0
"Line.21CF_1064"                             1       15.7        5.8        0.0        0.0     0.0     0.0        0.0        0.0        0.0        0.0
"Line.21CF_1064"                             2      -15.7       -5.8       -0.0       -0.0    -0.0    -0.0
"Line.21CF_1088"                             1        0.0        0.0        0.0        0.0     0.0     0.0        0.0        0.0        0.0        0.0
"Line.21CF_1088"                             2        0.0        0.0        0.0        0.0     0.0     0.0
"Line.21CF_1114"                             1        6.6        2.2        0.0        0.0     0.0    -0.0        0.0        0.0        0.0        0.0
"Line.21CF_1114"                             2       -6.6       -2.2       -0.0       -0.0    -0.0     0.0
"Line.21CF_1121"                             1       19.0        7.8       -0.0       -0.0    -0.0    -0.0        0.0        0.0        0.0        0.0
"Line.21CF_1121"                             2      -19.0       -7.8        0.0        0.0     0.0     0.0
"Line.21CF_1200"                             1        0.0        0.0        0.0        0.0     0.0     0.0        0.0        0.0        0.0        0.0
"Line.21CF_1200"                             2        0.0        0.0        0.0        0.0     0.0     0.0
"Line.21CF_1207"                             1        4.5        1.6       -0.0        0.0    -0.0    -0.0        0.0        0.0        0.0        0.0
"Line.21CF_1207"                             2       -4.5       -1.6        0.0       -0.0     0.0     0.0
"Line.21CF_1258"                             1        0.0        0.0        0.0        0.0     0.0     0.0        0.0        0.0        0.0        0.0
"Line.21CF_1258"                             2        0.0        0.0        0.0        0.0     0.0     0.0
"Line.21CF_1276"                             1        1.0        0.3        0.0        0.0     0.0    -0.0        0.0        0.0        0.0        0.0
"Line.21CF_1276"                             2       -1.0       -0.3       -0.0       -0.0    -0.0     0.0
"Line.21CF_1355"                             1        0.0        0.0        0.0        0.0     0.0     0.0        0.0        0.0        0.0        0.0
"Line.21CF_1355"                             2        0.0        0.0        0.0        0.0     0.0     0.0
"Line.21CF_1371"                             1        0.3        0.0        0.0        0.0    -0.0    -0.0        0.0        0.0        0.0        0.0
"Line.21CF_1371"                             2       -0.3       -0.0       -0.0       -0.0     0.0     0.0
"Line.21CF_1393"                             1        1.1        0.2        0.0        0.0     0.0    -0.0        0.0        0.0        0.0        0.0
"Line.21CF_1393"                             2       -1.1       -0.2       -0.0       -0.0    -0.0     0.0
"Line.21CF_1414"                             1        0.0        0.0        0.0        0.0     0.0     0.0        0.0        0.0        0.0        0.0
"Line.21CF_1414"                             2        0.0        0.0        0.0        0.0     0.0     0.0
"Line.21CF_1524"                             1        3.2        1.0        0.0        0.0    -0.0    -0.0        0.0        0.0        0.0        0.0
"Line.21CF_1524"                             2       -3.2       -1.0       -0.0       -0.0     0.0     0.0
"Line.21CF_1529"                             1        0.0        0.0        0.0        0.0     0.0     0.0        0.0        0.0        0.0        0.0
"Line.21CF_1529"                             2        0.0        0.0        0.0        0.0     0.0     0.0
"Line.21CF_1541"                             1        0.0        0.0        0.0        0.0     0.0     0.0        0.0        0.0        0.0        0.0
"Line.21CF_1541"                             2        0.0        0.0        0.0        0.0     0.0     0.0
"Line.21CF_1549"                             1        6.9        2.8        0.0        0.0     0.0    -0.0        0.0        0.0        0.0        0.0
"Line.21CF_1549"                             2       -6.9       -2.8       -0.0       -0.0    -0.0     0.0
"Line.21CF_1715"                             1        3.5        1.1       -0.0       -0.0     0.0    -0.0        0.0        0.0        0.0        0.0
"Line.21CF_1715"                             2       -3.5       -1.1        0.0        0.0     0.0     0.0
"Line.21CF_1724"                             1       10.2        4.2       -0.0        0.0     0.0    -0.0        0.0        0.0        0.0        0.0
"Line.21CF_1724"                             2      -10.2       -4.2        0.0       -0.0     0.0     0.0
"Line.21CF_1774"                             1        2.1        0.7        0.0        0.0     0.0    -0.0        0.0        0.0        0.0        0.0
"Line.21CF_1774"                             2       -2.1       -0.7       -0.0       -0.0    -0.0     0.0
"Line.21CF_1817"                             1        0.0        0.0        0.0        0.0     0.0     0.0        0.0        0.0        0.0        0.0
"Line.21CF_1817"                             2        0.0        0.0        0.0        0.0     0.0     0.0
"Line.21CF_279"                              1        1.0        0.0       -0.0       -0.0     0.0    -0.0        0.0        0.0        0.0        0.0
"Line.21CF_279"                              2       -1.0       -0.0        0.0        0.0    -0.0     0.0
"Line.21CF_407"                              1       12.5        4.6       -0.0       -0.0     0.0    -0.0        0.0        0.0        0.0        0.0
"Line.21CF_407"                              2      -12.5       -4.6        0.0        0.0    -0.0     0.0
"Line.21CF_539"                              1        0.0        0.0        0.0        0.0     0.0     0.0        0.0        0.0        0.0        0.0
"Line.21CF_539"                              2        0.0        0.0        0.0        0.0     0.0     0.0
"Line.21CF_649"                              1       30.6       11.5        0.0        0.0     0.0    -0.0        0.0        0.0        0.0        0.0
"Line.21CF_649"                              2      -30.6      -11.5       -0.0       -0.0    -0.0     0.0
"Line.21CF_669"                              1        0.0        0.0        0.0        0.0     0.0     0.0        0.0        0.0        0.0        0.0
"Line.21CF_669"                              2        0.0        0.0        0.0        0.0     0.0     0.0
"Line.21CF_703"                              1        0.0        0.0        0.0        0.0     0.0     0.0        0.0        0.0        0.0        0.0
"Line.21CF_703"                              2        0.0        0.0        0.0        0.0     0.0     0.0
"Line.21CF_756"                              1        5.0        1.7        0.0       -0.0    -0.0    -0.0        0.0        0.0        0.0        0.0
"Line.21CF_756"                              2       -5.0       -1.7       -0.0        0.0     0.0     0.0
"Line.21CF_785"                              1        0.6        0.2        0.0       -0.0    -0.0    -0.0        0.0        0.0        0.0        0.0
"Line.21CF_785"                              2       -0.6       -0.2       -0.0        0.0    -0.0     0.0
"Line.21CF_787"                              1        2.9        0.5       -0.0       -0.0    -0.0    -0.0        0.0        0.0        0.0        0.0
"Line.21CF_787"                              2       -2.9       -0.5        0.0        0.0     0.0     0.0
"Line.21CF_789"                              1        0.0        0.0        0.0        0.0     0.0     0.0        0.0        0.0        0.0        0.0
"Line.21CF_789"                              2        0.0        0.0        0.0        0.0     0.0     0.0
"Line.21CF_854"                              1        0.0        0.0        0.0        0.0     0.0     0.0        0.0        0.0        0.0        0.0
"Line.21CF_854"                              2        0.0        0.0        0.0        0.0     0.0     0.0
"Line.21CF_857"                              1        3.9        1.1       -0.0       -0.0    -0.0    -0.0        0.0        0.0        0.0        0.0
"Line.21CF_857"                              2       -3.9       -1.1        0.0        0.0     0.0     0.0
"Line.21CF_858"                              1        4.3        1.8       -0.0        0.0    -0.0    -0.0        0.0        0.0        0.0        0.0
"Line.21CF_858"                              2       -4.3       -1.8        0.0       -0.0    -0.0     0.0
"Line.21CF_859"                              1        3.5        1.4       -0.0       -0.0     0.0    -0.0        0.0        0.0        0.0        0.0
"Line.21CF_859"                              2       -3.5       -1.4        0.0        0.0    -0.0     0.0
"Line.21CF_979"                              1        2.8        0.9       -0.0       -0.0     0.0    -0.0        0.0        0.0        0.0        0.0
"Line.21CF_979"                              2       -2.8       -0.9        0.0        0.0    -0.0     0.0
"Line.21CS_1397"                             1      528.8      149.3       -0.1       -0.0    -0.0    -0.0        0.0        0.0        0.0        0.0
"Line.21CS_1397"                             2     -528.8     -149.3        0.1        0.0     0.0     0.0
"Line.21CS_1530"                             1      662.9      192.2       -0.1       -0.0    -0.0    -0.0        0.0        0.0        0.0        0.0
"Line.21CS_1530"                             2     -662.9     -192.2        0.1        0.0     0.0     0.0
"Line.21CS_1648"                             1      621.3      178.5       -0.1       -0.0    -0.0    -0.0        0.0        0.0        0.0        0.0
"Line.21CS_1648"                             2     -621.3     -178.5        0.1        0.0     0.0     0.0
"Line.21CS_555"                              1      444.1      120.2       -0.1       -0.0    -0.0    -0.0        0.0        0.0        0.0        0.0
"Line.21CS_555"                              2     -444.1     -120.2        0.1        0.0     0.0     0.0
"Line.21CS_720"                              1      505.4      140.7       -0.1       -0.0    -0.0    -0.0        0.0        0.0        0.0        0.0
"Line.21CS_720"                              2     -505.4     -140.7        0.1        0.0     0.0     0.0
"Line.21CS_728"                              1       21.3        6.5        0.0       -0.0     0.0     0.0        0.0        0.0        0.0        0.0
"Line.21CS_728"                              2      -21.3       -6.5       -0.0        0.0    -0.0    -0.0
"Line.21FR_1033"                             1        0.0       -0.1       -0.0       -0.0    -0.0    -0.0        0.0        0.0        0.0        0.0
"Line.21FR_1033"                             2       -0.0        0.1        0.0        0.0     0.0     0.0
"Line.21FR_233"                              1       17.0        5.1       -0.0       -0.0    -0.0    -0.0        0.0        0.0        0.0        0.0
"Line.21FR_233"                              2      -17.0       -5.1        0.0        0.0     0.0     0.0
"Line.21FR_238"                              1       20.4        5.3       -0.0       -0.0    -0.0    -0.0        0.0        0.0        0.0        0.0
"Line.21FR_238"                              2      -20.4       -5.3        0.0        0.0     0.0     0.0
"Line.21FR_841"                              1       45.5       12.8        0.0       -0.0     0.0     0.0        0.0        0.0        0.0        0.0
"Line.21FR_841"                              2      -45.5      -12.8       -0.0        0.0    -0.0    -0.0
"Line.21FR_856"                              1       49.9       15.0       -0.0       -0.0    -0.0    -0.0        0.0        0.0        0.0        0.0
"Line.21FR_856"                              2      -49.9      -15.0        0.0        0.0     0.0     0.0
"Line.21RL_1415"                             1      452.3      122.7       -0.1       -0.0    -0.0    -0.0        0.0        0.0        0.0        0.0
"Line.21RL_1415"                             2     -452.3     -122.7        0.1        0.0     0.0     0.0
"Line.21RL_1591"                             1       -0.0       -0.0        0.0       -0.0    -0.0    -0.0        0.0        0.0        0.0        0.0
"Line.21RL_1591"                             2        0.0        0.0        0.0        0.0    -0.0     0.0
"Line.21RL_237"                              1      681.5      196.1       -0.1       -0.0    -0.0    -0.0        0.0        0.0        0.0        0.0
"Line.21RL_237"                              2     -681.5     -196.1        0.1        0.0     0.0     0.0
"Line.21SA_579"                              1       17.6        3.8       -0.0       -0.0    -0.0     0.0        0.0        0.0        0.0        0.0
"Line.21SA_579"                              2      -17.6       -3.8        0.0        0.0     0.0    -0.0
"Line.33CF_1115"                             1        0.0        0.0        0.0        0.0     0.0     0.0        0.0        0.0        0.0        0.0
"Line.33CF_1115"                             2        0.0        0.0        0.0        0.0     0.0     0.0
"Line.33CF_1488"                             1        0.0        0.0        0.0        0.0     0.0     0.0        0.0        0.0        0.0        0.0
"Line.33CF_1488"                             2        0.0        0.0        0.0        0.0     0.0     0.0
"Line.33CF_1489"                             1        0.0        0.0        0.0        0.0     0.0     0.0        0.0        0.0        0.0        0.0
"Line.33CF_1489"                             2        0.0        0.0        0.0        0.0     0.0     0.0
"Line.33CF_1490"                             1        0.0        0.0        0.0        0.0     0.0     0.0        0.0        0.0        0.0        0.0
"Line.33CF_1490"                             2        0.0        0.0        0.0        0.0     0.0     0.0
"Line.33CF_1596"                             1        0.0        0.0        0.0        0.0     0.0     0.0        0.0        0.0        0.0        0.0
"Line.33CF_1596"                             2        0.0        0.0        0.0        0.0     0.0     0.0
...